#------------------------------------------------------------------------------
#$Date: 2017-10-05 10:39:31 +0300 (Thu, 05 Oct 2017) $
#$Revision: 201751 $
#$URL: file:///home/coder/svn-repositories/cod/cif/1/54/72/1547218.cif $
#------------------------------------------------------------------------------
#
# This file is available in the Crystallography Open Database (COD),
# http://www.crystallography.net/
#
# All data on this site have been placed in the public domain by the
# contributors.
#
data_1547218
loop_
_publ_author_name
'Petrov, Andrey A.'
'Sokolova, Iuliia P.'
'Belich, Nikolai A.'
'Peters, Georgy S.'
'Dorovatovskii, Pavel V.'
'Zubavichus, Yan V.'
'Khrustalev, Victor N.'
'Petrov, Andrey V.'
'Gr\"atzel, Michael'
'Goodilin, Eugene A.'
'Tarasov, Alexey B.'
_publ_section_title
;
 Crystal Structure of DMF-Intermediate Phases Uncovers the Link Between
 CH3NH3PbI3 Morphology and Precursor Stoichiometry
;
_journal_issue                   38
_journal_name_full               'The Journal of Physical Chemistry C'
_journal_page_first              20739
_journal_paper_doi               10.1021/acs.jpcc.7b08468
_journal_volume                  121
_journal_year                    2017
_chemical_formula_moiety         'I5 Pb, C3 H7 N O, 3(C H6 N)'
_chemical_formula_sum            'C6 H25 I5 N4 O Pb'
_chemical_formula_weight         1011.00
_space_group_crystal_system      triclinic
_space_group_IT_number           2
_space_group_name_Hall           '-P 1'
_space_group_name_H-M_alt        'P -1'
_symmetry_space_group_name_Hall  '-P 1'
_symmetry_space_group_name_H-M   'P -1'
_atom_sites_solution_hydrogens   geom
_atom_sites_solution_primary     difmap
_atom_sites_solution_secondary   difmap
_audit_creation_method           SHELXL-2014/6
_cell_angle_alpha                111.18(3)
_cell_angle_beta                 101.11(3)
_cell_angle_gamma                109.80(3)
_cell_formula_units_Z            2
_cell_length_a                   10.1714(15)
_cell_length_b                   11.335(3)
_cell_length_c                   12.394(2)
_cell_measurement_reflns_used    600
_cell_measurement_temperature    100(2)
_cell_measurement_theta_max      34.0
_cell_measurement_theta_min      4.0
_cell_volume                     1170.0(7)
_computing_cell_refinement       'iMosflm (Battye et al., 2011)'
_computing_data_collection       'Marccd (Doyle, 2011)'
_computing_data_reduction        iMosflm
_computing_molecular_graphics    'SHELXTL (Sheldrick, 2015)'
_computing_publication_material  SHELXTL
_computing_structure_refinement  'SHELXL (Sheldrick, 2015)'
_computing_structure_solution    'SHELXT (Sheldrick, 2015)'
_diffrn_ambient_temperature      100(2)
_diffrn_measured_fraction_theta_full 0.995
_diffrn_measured_fraction_theta_max 0.893
_diffrn_measurement_device_type  'Rayonix SX165 CCD'
_diffrn_measurement_method       '/f scan'
_diffrn_radiation_type           synchrotron
_diffrn_radiation_wavelength     0.96990
_diffrn_reflns_av_R_equivalents  0.0888
_diffrn_reflns_av_unetI/netI     0.1917
_diffrn_reflns_Laue_measured_fraction_full 0.995
_diffrn_reflns_Laue_measured_fraction_max 0.893
_diffrn_reflns_limit_h_max       12
_diffrn_reflns_limit_h_min       -12
_diffrn_reflns_limit_k_max       14
_diffrn_reflns_limit_k_min       -14
_diffrn_reflns_limit_l_max       15
_diffrn_reflns_limit_l_min       -14
_diffrn_reflns_number            18171
_diffrn_reflns_point_group_measured_fraction_full 0.995
_diffrn_reflns_point_group_measured_fraction_max 0.893
_diffrn_reflns_theta_full        35.587
_diffrn_reflns_theta_max         38.385
_diffrn_reflns_theta_min         3.946
_exptl_absorpt_coefficient_mu    19.169
_exptl_absorpt_correction_T_max  0.120
_exptl_absorpt_correction_T_min  0.060
_exptl_absorpt_correction_type   multi-scan
_exptl_absorpt_process_details   'Scala (Evans, 2006)'
_exptl_crystal_colour            colourless
_exptl_crystal_density_diffrn    2.870
_exptl_crystal_description       prism
_exptl_crystal_F_000             888
_exptl_crystal_size_max          0.15
_exptl_crystal_size_mid          0.10
_exptl_crystal_size_min          0.10
_refine_diff_density_max         12.269
_refine_diff_density_min         -5.771
_refine_diff_density_rms         0.915
_refine_ls_extinction_coef       0.0031(3)
_refine_ls_extinction_expression Fc^*^=kFc[1+0.001xFc^2^\l^3^/sin(2\q)]^-1/4^
_refine_ls_extinction_method     SHELXL
_refine_ls_goodness_of_fit_ref   1.057
_refine_ls_hydrogen_treatment    constr
_refine_ls_matrix_type           full
_refine_ls_number_parameters     125
_refine_ls_number_reflns         4757
_refine_ls_number_restraints     0
_refine_ls_restrained_S_all      1.057
_refine_ls_R_factor_all          0.1351
_refine_ls_R_factor_gt           0.1219
_refine_ls_shift/su_max          0.000
_refine_ls_shift/su_mean         0.000
_refine_ls_structure_factor_coef Fsqd
_refine_ls_weighting_details
'w=1/[\s^2^(Fo^2^)+(0.01P)^2^+160P] where P=(Fo^2^+2Fc^2^)/3'
_refine_ls_weighting_scheme      calc
_refine_ls_wR_factor_gt          0.2715
_refine_ls_wR_factor_ref         0.2847
_reflns_Friedel_coverage         0.000
_reflns_number_gt                3786
_reflns_number_total             4757
_reflns_threshold_expression     'I > 2\s(I)'
_cod_data_source_file            jp7b08468_si_004.cif
_cod_data_source_block           Pb2I5MAH
_cod_depositor_comments
'Adding full bibliography for 1547218--1547220.cif.'
_cod_database_code               1547218
_shelx_space_group_comment
;
The symmetry employed for this shelxl refinement is uniquely defined
by the following loop, which should always be used as a source of
symmetry information in preference to the above space-group names.
They are only intended as comments.
;
_shelx_estimated_absorpt_t_min   0.156
_shelx_estimated_absorpt_t_max   0.243
_shelxl_version_number           2014/6
_shelx_res_file
;
TITL PbIMAH in P-1
CELL 0.96990  10.1714  11.3355  12.3945  111.180 101.110 109.800
ZERR     2.0   0.0015   0.0028   0.0021    0.030   0.030   0.030
LATT 1
SFAC C H N O I Pb
DISP C 0.007 0.003 25.571
DISP H -0 0 0.636
DISP N 0.013 0.007 47.42
DISP O 0.021 0.012 81.964
DISP I -0.034 3.136 18629.286
DISP Pb -9.993 4.068 21889.318
UNIT 12 50 8 2 10 2
TEMP -173.0
SIZE 0.10 0.10 0.15

OMIT    -8   2  12
OMIT    -7   0  13
OMIT    11  -5   2
OMIT    -8   1  11
OMIT    11  -8   3
OMIT   -11   3   0
OMIT    10 -10   5
OMIT     6   5   0
OMIT    -3  10   3
OMIT    -6   5  10
OMIT    -8  -1  13
OMIT    -4   7   2
OMIT     5  -3   1
OMIT     5  -6   4
OMIT    -6  -1   4
OMIT    -5   6   9
OMIT     1  -6   5
OMIT    10  -2   2
OMIT    -5   3   7
OMIT     6  -6   7
OMIT     1   6   1
OMIT     5  -9   3
OMIT    -4  -2   3
OMIT    -3   2   6
OMIT    -1   2  12
OMIT    -6  -3   6
OMIT    -5   1   1
OMIT   -10   2   2
OMIT    -5  -2   4
OMIT    -7   2   2
OMIT     0 -11  11
OMIT    -3   6   6
OMIT     4 -10   1
OMIT    -4   5   8
OMIT     1   1   6
OMIT    -4  -4   5
OMIT     2   0   6
OMIT     3  -5   1
OMIT    -6   2   5
L.S. 12
BOND $H
ACTA
CONF
TWIN -1 0 0 0.3 0.25 -0.75 -0.3 -1.25 -0.25 2
EQIV $1 -x, -y, -z+1
HTAB N2 I1_$1
HTAB N2 I4
HTAB N3 I1
EQIV $2 -x+1, -y+1, -z+2
HTAB N3 I4_$2
EQIV $3 -x, -y+1, -z+1
HTAB N4 O1
HTAB N4 O1_$3
EADP O1 N1 C1 C2 C3
EADP N2 C4
EADP N3 C5
EADP N4 C6

WGHT    0.010000  160.000000
EXTI    0.003052
BASF   0.01287
FVAR       0.20833
PB1   6    0.000000    0.000000    0.500000    10.50000    0.01126    0.00504 =
         0.01213    0.00382    0.00175    0.00182
PB2   6    0.500000    0.500000    1.000000    10.50000    0.01079    0.00629 =
         0.01269    0.00416    0.00145    0.00173
I1    5    0.247969   -0.086275    0.408957    11.00000    0.01284    0.00970 =
         0.01681    0.00761    0.00556    0.00496
I2    5   -0.037059    0.129526    0.311025    11.00000    0.01408    0.01026 =
         0.01889    0.01057    0.00200    0.00165
I3    5    0.258693    0.304281    0.717687    11.00000    0.01045    0.00525 =
         0.01209    0.00462    0.00049    0.00111
I4    5    0.249697    0.585780    1.082945    11.00000    0.01278    0.01110 =
         0.01610    0.00554    0.00525    0.00382
I5    5    0.618919    0.774390    0.954418    11.00000    0.02015    0.01183 =
         0.01526    0.00934    0.00271    0.00356
O1    4    0.226684    0.556591    0.545942    11.00000    0.01190    0.01318 =
         0.01841    0.00601    0.00205    0.00128
N1    3    0.460440    0.642094    0.540302    11.00000    0.01190    0.01318 =
         0.01841    0.00601    0.00205    0.00128
C1    1    0.366264    0.605552    0.595892    11.00000    0.01190    0.01318 =
         0.01841    0.00601    0.00205    0.00128
AFIX  43
H1    2    0.405706    0.616761    0.676865    11.00000   -1.20000
AFIX   0
C2    1    0.406856    0.626843    0.414522    11.00000    0.01190    0.01318 =
         0.01841    0.00601    0.00205    0.00128
AFIX 137
H2A   2    0.313778    0.539241    0.363719    11.00000   -1.50000
H2B   2    0.482846    0.623526    0.377020    11.00000   -1.50000
H2C   2    0.388307    0.707620    0.419175    11.00000   -1.50000
AFIX   0
C3    1    0.622303    0.709600    0.603076    11.00000    0.01190    0.01318 =
         0.01841    0.00601    0.00205    0.00128
AFIX 137
H3A   2    0.666397    0.660043    0.550484    11.00000   -1.50000
H3B   2    0.645575    0.705650    0.681824    11.00000   -1.50000
H3C   2    0.663775    0.808499    0.619132    11.00000   -1.50000
AFIX   0
N2    3    0.027162    0.202518    0.892999    11.00000    0.03305    0.01321 =
         0.02227    0.00733   -0.00418    0.00618
AFIX 137
H2D   2   -0.036670    0.178087    0.817646    11.00000   -1.50000
H2E   2    0.093003    0.165376    0.882357    11.00000   -1.50000
H2F   2    0.078259    0.298379    0.936892    11.00000   -1.50000
AFIX   0
C4    1   -0.062875    0.144389    0.964378    11.00000    0.03305    0.01321 =
         0.02227    0.00733   -0.00418    0.00618
AFIX 137
H4A   2   -0.114240    0.040891    0.918982    11.00000   -1.50000
H4B   2   -0.136944    0.180971    0.972507    11.00000   -1.50000
H4C   2    0.005365    0.174381    1.046985    11.00000   -1.50000
AFIX   0
N3    3    0.429834    0.072470    0.750363    11.00000    0.02223    0.01200 =
         0.02177    0.01251    0.00622    0.00513
AFIX 137
H3D   2    0.397478    0.039635    0.666731    11.00000   -1.50000
H3E   2    0.507327    0.160808    0.787630    11.00000   -1.50000
H3F   2    0.353553    0.075696    0.777562    11.00000   -1.50000
AFIX   0
C5    1    0.481336   -0.024652    0.782060    11.00000    0.02223    0.01200 =
         0.02177    0.01251    0.00622    0.00513
AFIX 137
H5A   2    0.573595   -0.016175    0.765401    11.00000   -1.50000
H5B   2    0.403543   -0.122436    0.731402    11.00000   -1.50000
H5C   2    0.500408    0.001409    0.870019    11.00000   -1.50000
AFIX   0
N4    3    0.005907    0.570836    0.382038    11.00000    0.02826    0.01849 =
         0.03406    0.01975    0.01996    0.01099
AFIX 137
H4D   2    0.017930    0.654904    0.383849    11.00000   -1.50000
H4E   2    0.094478    0.580712    0.427032    11.00000   -1.50000
H4F   2   -0.064286    0.543407    0.415060    11.00000   -1.50000
AFIX   0
C6    1   -0.044623    0.460292    0.249369    11.00000    0.02826    0.01849 =
         0.03406    0.01975    0.01996    0.01099
AFIX 137
H6A   2   -0.133619    0.457485    0.198827    11.00000   -1.50000
H6B   2   -0.068828    0.367546    0.246394    11.00000   -1.50000
H6C   2    0.035838    0.484215    0.216918    11.00000   -1.50000

AFIX   0
HKLF 4

REM  PbIMAH in P-1
REM R1 =  0.1219 for    3786 Fo > 4sig(Fo)  and  0.1351 for all    4757 data
REM    125 parameters refined using      0 restraints

END

WGHT      0.2000      0.0000

REM Highest difference peak 12.269,  deepest hole -5.771,  1-sigma level  0.915
Q1    1   0.2836  0.2378  0.7427  11.00000  0.05   12.27
Q2    1  -0.0217  0.0657  0.4668  11.00000  0.05   10.56
Q3    1   0.2100  0.2542  0.7642  11.00000  0.05   10.46
Q4    1   0.0374  0.3259  0.8279  11.00000  0.05    8.11
Q5    1   0.3294  0.5193  0.7049  11.00000  0.05    7.67
Q6    1   0.6756  0.8885  1.0635  11.00000  0.05    7.67
Q7    1   0.5384  0.1551  0.6556  11.00000  0.05    7.61
Q8    1   0.4644  0.1751  0.6755  11.00000  0.05    7.44
Q9    1   0.7431  0.6346  0.4522  11.00000  0.05    7.29
Q10   1   0.4549  0.4523  1.0533  11.00000  0.05    6.87
Q11   1  -0.0344  0.3418  0.8405  11.00000  0.05    6.75
Q12   1  -0.0790  0.0146  0.1943  11.00000  0.05    6.63
Q13   1   0.0804 -0.0183  0.4776  11.00000  0.05    6.02
Q14   1   0.3882  0.6340  0.8203  11.00000  0.05    6.02
Q15   1   0.1665 -0.0617  0.4313  11.00000  0.05    5.23
Q16   1   0.4182  0.5208  1.0193  11.00000  0.05    5.13
Q17   1   0.0428  0.2871  0.4588  11.00000  0.05    4.82
Q18   1   0.3335  0.5634  1.0676  11.00000  0.05    4.57
Q19   1   0.3214  0.1644  0.7647  11.00000  0.05    4.39
Q20   1   0.7967  0.7510  0.5714  11.00000  0.05    3.90
;
_shelx_res_checksum              88290
_shelx_hkl_file
;
 -12   0   4   -8.36   17.55
  12   0  -4    5.38   22.01
 -12   0   5   14.94   19.34
  12   0  -5    8.72   18.85
 -12   0   6  113.43   37.07
  12   0  -6   71.22   36.59
 -12   0   7   -3.19   18.32
  12   0  -7    2.70   18.77
 -12   0   8   32.08   21.65
  12   0  -8   24.37   21.67
 -12   1   3    0.61   34.91
  12  -1  -3  173.49   38.29
 -12   1   4  214.09   60.82
  12  -1  -4  140.03   59.74
 -12   1   5  402.69  116.72
  12  -1  -5  299.46  115.33
 -12   1   6   44.78   30.09
  12  -1  -6   92.56   29.67
 -12   1   7    2.86   17.96
  12  -1  -7    4.51   16.39
 -12   1   8  414.64  135.12
  12  -1  -8  391.58  134.78
 -12   2   1    6.83   21.52
  12  -2  -1   97.30   24.20
 -12   2   2   -0.04   31.00
  12  -2  -2  166.57   34.04
 -12   2   3   16.18   13.09
  12  -2  -3    4.32   15.66
  12  -2  -4   13.55   14.49
 -12   2   5  118.93   44.29
  12  -2  -5  126.08   43.91
 -12   2   6   19.31   12.40
  12  -2  -6   22.29   15.29
 -12   2   7    4.29   13.16
  12  -2  -7   -3.67   13.69
 -12   2   8  592.25  179.84
  12  -2  -8  489.22  179.60
 -12   3   1    1.30    7.94
  12  -3  -1    3.64    9.14
 -12   3   2    0.41    9.16
  12  -3  -2   19.68   11.01
 -12   3   3  140.42   53.71
  12  -3  -3  172.78   53.68
 -12   3   4   15.22   10.65
  12  -3  -4    6.80   10.24
 -12   3   5  289.38   95.19
  12  -3  -5  280.74   95.32
 -12   3   6    0.63    7.01
  12  -3  -6    1.25    9.75
 -12   3   7  529.37  128.68
  12  -3  -7  249.25  127.70
 -12   3   8  117.50   47.00
  12  -3  -8  150.74   46.68
 -12   4   1   -2.18    7.48
  12  -4  -1    2.45    7.95
 -12   4   2  779.40  263.26
  12  -4  -2  807.68  263.07
 -12   4   3    3.11    9.22
  12  -4  -3    3.59    7.57
 -12   4   4   49.11   20.20
  12  -4  -4   54.32   19.40
 -12   4   5  130.31   47.83
  12  -4  -5  147.00   47.47
 -12   4   6  293.76   84.66
  12  -4  -6  219.82   83.97
 -12   4   7   19.90   12.89
  12  -4  -7   21.15   10.70
 -12   4   8  232.05   70.01
  12  -4  -8  187.24   69.23
 -12   5   1   29.92   16.00
  12  -5  -1   52.97   16.08
 -12   5   2    5.23    7.31
  12  -5  -2    2.33    6.58
 -12   5   3   64.15   22.03
  12  -5  -3   56.99   21.64
 -12   5   4   17.32   10.70
  12  -5  -4   20.14   10.05
 -12   5   5  206.34   69.81
  12  -5  -5  209.06   69.61
 -12   5   6   28.43   14.75
  12  -5  -6   43.73   14.21
 -12   5   7  377.54  136.23
  12  -5  -7  437.75  136.30
 -12   6   1   50.64   20.26
  12  -6  -1   55.92   19.06
 -12   6   2  151.20   46.43
  12  -6  -2  127.02   46.03
 -12   6   3   96.95   33.58
  12  -6  -3   98.78   33.26
 -12   6   4  154.95   51.28
  12  -6  -4  150.14   50.99
 -12   6   5    7.85    7.32
  12  -6  -5   10.98    7.01
 -12   6   6  682.98  236.62
  12  -6  -6  739.93  236.54
 -12   6   7   -0.30    6.85
  12  -6  -7    1.53    6.19
 -12   7   1    1.34    7.54
  12  -7  -1    2.56    6.54
 -12   7   2    7.93    8.02
 -12   7   3  186.10   72.27
  12  -7  -3  239.17   72.17
 -12   7   4   10.00    9.46
  12  -7  -4    7.57    8.09
 -12   7   5  197.74   90.39
  12  -7  -5  327.89   90.53
 -12   7   6    9.04   10.61
  12  -7  -6    7.72    9.37
 -12   8   1   39.85   19.09
  12  -8  -1   55.46   18.80
 -12   8   2  481.77  143.28
  12  -8  -2  388.56  143.00
 -12   8   3  186.45   60.51
  12  -8  -3  172.62   60.19
 -12   8   4  302.95   98.00
  12  -8  -4  285.53   97.78
  12  -8  -5   15.53   10.84
 -12   9   1  624.92  171.23
  12  -9  -1  404.54  170.46
 -12   9   2   12.42   14.26
  12  -9  -2   10.44   11.87
 -12   9   3  511.08  189.78
  12  -9  -3  631.92  189.82
 -11  -3   7    0.11   16.69
  11   3  -7   10.43   18.63
 -11  -2   4   -2.69   49.26
  11   2  -4  297.83   53.45
 -11  -2   5  685.72  249.05
  11   2  -5  828.52  249.50
 -11  -2   6   49.23   25.70
  11   2  -6   60.19   26.12
 -11  -2   7 1225.94  442.01
  11   2  -7 1477.29  442.41
 -11  -2   8   86.87   33.88
  11   2  -8   82.06   34.42
 -11  -2   9  153.62   57.78
  11   2  -9  174.91   58.67
 -11  -1   2   -2.05  169.74
  11   1  -2 1003.64  173.34
 -11  -1   3   -3.78   19.56
  11   1  -3   90.09   25.20
 -11  -1   4  447.67  153.54
  11   1  -4  473.78  154.22
 -11  -1   5    3.34   14.17
  11   1  -5   -2.83   15.34
 -11  -1   6 2869.63  913.38
  11   1  -6 2657.02  913.35
 -11  -1   7   45.24   20.75
  11   1  -7   34.78   21.40
 -11  -1   8    4.99   15.38
  11   1  -8    7.40   15.54
 -11  -1   9   84.20   36.24
  11   1  -9  112.96   37.34
 -11  -1  10   15.30   15.91
  11   1 -10   11.37   17.64
 -11   0   1    2.99   44.78
  11   0  -1  217.56   46.78
 -11   0   2    1.15   18.12
  11   0  -2   32.23   17.71
 -11   0   3 1110.06  430.81
  11   0  -3 1485.94  431.21
 -11   0   4   90.85   36.46
  11   0  -4  109.56   38.36
 -11   0   5  500.14  147.50
  11   0  -5  386.62  147.27
 -11   0   6   20.54   14.50
  11   0  -6   20.11   15.85
 -11   0   7    4.31   12.93
  11   0  -7   10.47   14.74
 -11   0   8  233.92   91.65
  11   0  -8  310.68   92.35
 -11   0   9   11.00   14.40
  11   0  -9    6.95   15.50
 -11   0  10   64.12   28.86
  11   0 -10   66.25   29.49
 -11   1   1   91.37   30.20
 -11   1   1   -2.19   28.42
  11  -1  -1   -0.93   27.27
  11  -1  -1  246.32   33.63
 -11   1   2 1021.31  285.85
 -11   1   2  150.14  281.81
  11  -1  -2    0.57  284.36
  11  -1  -2 2354.65  284.33
 -11   1   3   58.91   50.53
 -11   1   3  248.20   50.24
  11  -1  -3  184.21   49.40
 -11   1   4  526.19  177.59
  11  -1  -4  541.55  177.51
 -11   1   5  226.98   78.18
  11  -1  -5  235.84   78.15
 -11   1   6   55.98   22.54
  11  -1  -6   56.14   22.56
 -11   1   7  164.59   58.34
  11  -1  -7  175.53   58.40
 -11   1   8    8.50   12.43
  11  -1  -8    3.84   12.33
 -11   1   9    3.68    9.37
  11  -1  -9   -2.70   12.71
 -11   1  10   85.23   32.17
  11  -1 -10   75.41   31.44
 -11   2   1  415.09  190.63
 -11   2   1    1.63  187.90
  11  -2  -1 1303.50  190.25
 -11   2   2    4.80   11.96
 -11   2   2    7.86   12.71
  11  -2  -2   -0.11   11.64
  11  -2  -2    7.45   11.77
 -11   2   3  251.45  288.78
 -11   2   3 1653.95  287.47
  11  -2  -3  277.77  288.72
  11  -2  -3 1524.97  286.95
 -11   2   4   84.57   27.18
  11  -2  -4   58.50   26.01
 -11   2   5  224.97   66.80
  11  -2  -5  173.50   66.17
 -11   2   6   80.16   27.43
  11  -2  -6   64.64   26.57
 -11   2   7   30.37   18.72
  11  -2  -7   27.76   15.36
 -11   2   8   50.91   23.24
  11  -2  -8   56.54   22.81
 -11   2   9  168.12   67.13
  11  -2  -9  220.94   67.36
 -11   2  10   55.01   27.52
  11  -2 -10   86.66   28.01
 -11   3   1    2.84   17.03
  11  -3  -1    4.09   15.19
  11  -3  -1    4.13    9.96
 -11   3   2   53.50   37.83
 -11   3   2  189.44   34.82
  11  -3  -2   36.44   35.38
  11  -3  -2  104.25   33.84
 -11   3   3   13.15   12.05
  11  -3  -3   24.81   12.17
 -11   3   4  274.61   88.33
  11  -3  -4  252.31   88.18
 -11   3   5  138.20   47.01
  11  -3  -5  133.06   46.84
 -11   3   6  275.35   81.87
  11  -3  -6  210.62   81.34
 -11   3   7  184.86   81.70
  11  -3  -7  298.65   82.14
 -11   3   8   76.23   26.82
  11  -3  -8   74.92   27.51
 -11   3   9   49.59   20.96
  11  -3  -9   57.94   20.85
 -11   3  10  815.66  122.54
  11  -3 -10    2.88  119.40
 -11   4   1  195.11   54.08
  11  -4  -1   85.09   56.10
  11  -4  -1  166.42   53.18
 -11   4   2   -0.33   21.75
 -11   4   2    0.09    8.23
  11  -4  -2    5.85   18.70
  11  -4  -2    5.23    6.80
 -11   4   3    3.20    8.25
  11  -4  -3    5.39    8.34
 -11   4   4   81.77   28.36
  11  -4  -4   79.18   27.95
 -11   4   5  277.56   80.56
  11  -4  -5  210.72   80.16
 -11   4   6   40.59   15.96
  11  -4  -6   37.88   15.42
 -11   4   7    5.10    8.52
  11  -4  -7    1.75    7.23
 -11   4   8   48.11   17.70
  11  -4  -8   39.77   16.78
 -11   4   9  474.71  123.59
  11  -4  -9  288.37  122.82
 -11   5   1   -0.28   24.34
 -11   5   1   33.22   13.33
  11  -5  -1   23.81   21.57
  11  -5  -1   43.88   13.05
 -11   5   2  114.86   40.53
  11  -5  -2  121.81   40.30
 -11   5   3  345.36  109.43
  11  -5  -3  316.05  109.15
 -11   5   4  254.78   80.31
  11  -5  -4  228.75   79.97
 -11   5   5   10.70    8.88
  11  -5  -5    3.98    7.41
 -11   5   6  337.80  115.54
  11  -5  -6  355.04  115.42
 -11   5   7    3.18    7.87
  11  -5  -7    4.52    7.34
 -11   5   8   58.54   20.12
  11  -5  -8   47.94   19.05
 -11   5   9   11.00    9.57
 -11   6   1  115.55   36.38
  11  -6  -1   73.07   41.58
  11  -6  -1  109.08   36.02
 -11   6   2    9.92    7.17
  11  -6  -2    8.76    6.25
 -11   6   3  197.63   59.55
  11  -6  -3  163.20   59.26
 -11   6   4    5.97    7.01
  11  -6  -4   10.63    6.46
 -11   6   5  328.59  108.14
  11  -6  -5  323.44  107.97
 -11   6   6    0.26    6.47
  11  -6  -6   -1.37    5.41
 -11   6   7  296.78   97.01
  11  -6  -7  287.64   96.79
 -11   6   8   42.54   16.25
  11  -6  -8   36.16   15.68
 -11   7   1    4.91    7.39
  11  -7  -1    5.09    6.43
 -11   7   2  126.76   52.13
  11  -7  -2  176.29   52.03
 -11   7   3   66.17   24.63
  11  -7  -3   72.18   24.16
 -11   7   4   13.74    9.21
  11  -7  -4   17.51    8.29
 -11   7   5   10.64    8.81
  11  -7  -5   16.72    8.11
 -11   7   6  388.45  102.74
  11  -7  -6  246.34  102.25
 -11   7   7   75.64   30.33
  11  -7  -7   84.99   28.83
 -11   8   1   16.25    8.52
  11  -8  -1   14.21    8.41
 -11   8   2  126.22   40.63
  11  -8  -2  114.10   40.42
 -11   8   3   88.43   29.23
  11  -8  -3   80.90   28.98
 -11   8   4   27.66   11.48
  11  -8  -4   24.43   11.15
 -11   8   5   62.33   24.64
  11  -8  -5   76.32   24.73
 -11   8   6   36.80   17.47
  11  -8  -6   42.98   17.18
 -11   9   1   15.81   10.80
  11  -9  -1   10.89    9.95
 -11   9   2   49.36   24.35
  11  -9  -2   84.12   24.71
 -11   9   3   23.18   14.14
  11  -9  -3   39.70   14.46
 -11   9   4  851.29  276.74
  11  -9  -4  820.40  276.46
 -11   9   5   -1.31   15.45
  11  -9  -5    1.27   10.54
 -11  10   1  102.34   39.08
  11 -10  -1  117.50   38.33
 -11  10   2   22.77   15.87
 -11  10   3  664.56  217.95
  11 -10  -3  648.96  217.29
 -11  11   1    0.49   14.14
  11 -11  -1    6.73    9.58
  10   4  -4   -0.13   15.39
 -10  -4   5    3.87   15.79
  10   4  -5   73.72   18.03
 -10  -4   6   62.63   22.99
  10   4  -6   59.23   23.15
 -10  -4   7   -1.06    8.74
  10   4  -7    0.41    9.30
 -10  -4   8  170.90   70.96
  10   4  -8  254.89   71.62
 -10  -4   9   67.90   25.61
  10   4  -9   70.69   25.87
 -10  -4  10  406.25  128.49
  10   4 -10  360.92  128.54
 -10  -3   2   12.32   18.75
  10   3  -2   -1.22   20.44
 -10  -3   3   -2.40   19.68
 -10  -3   3   -7.08    9.84
  10   3  -3    4.87    9.24
  10   3  -3    3.99   17.41
 -10  -3   4    7.08   18.50
 -10  -3   4    0.73    8.96
  10   3  -4   -0.26   10.85
  10   3  -4   33.21   15.53
  10   3  -5   15.58   14.51
 -10  -3   6   65.68   27.86
  10   3  -6   80.81   27.94
 -10  -3   7  365.71  121.10
  10   3  -7  358.93  121.06
 -10  -3   8    6.47   12.67
  10   3  -8   11.37   12.66
 -10  -3   9   64.23   26.85
  10   3  -9   76.30   28.05
 -10  -3  10   54.73   23.62
  10   3 -10   57.91   24.62
 -10  -3  11  623.63  194.09
  10   3 -11  528.94  194.49
 -10  -2   1  128.99   31.08
 -10  -2   1   -0.76   29.26
  10   2  -1    5.95   28.90
  10   2  -1  210.59   36.05
 -10  -2   2   -1.05   15.96
 -10  -2   2    1.51   13.22
  10   2  -2    3.53   10.33
  10   2  -2    5.82   17.21
 -10  -2   3  334.56   67.66
 -10  -2   3   -0.70   64.39
  10   2  -3   -1.01   65.41
  10   2  -3  582.03   70.02
 -10  -2   4   -6.69   16.52
 -10  -2   4   -0.67   12.12
  10   2  -4    0.02   10.04
  10   2  -4    3.57   14.78
 -10  -2   5   16.01   17.65
 -10  -2   5   23.20   13.86
  10   2  -5   23.64   15.64
 -10  -2   6 4778.06 1418.91
  10   2  -6 3766.27 1418.80
 -10  -2   7   44.60   19.46
  10   2  -7   47.92   20.96
 -10  -2   8  304.41  125.23
  10   2  -8  458.40  126.00
 -10  -2   9  111.39   38.80
  10   2  -9  106.29   40.50
 -10  -2  10 1514.43  481.42
  10   2 -10 1379.45  481.79
 -10  -2  11    5.12   21.53
  10   2 -11    6.38   18.71
 -10  -1   1   27.95   14.87
 -10  -1   1   -0.95   16.26
  10   1  -1    4.18   14.71
  10   1  -1   68.89   19.59
 -10  -1   2   10.73   11.72
 -10  -1   2   -4.68   11.22
  10   1  -2   -1.98   10.44
  10   1  -2   21.14   15.33
 -10  -1   3   19.38   13.50
  10   1  -3   -0.63   10.59
  10   1  -3   15.94   14.92
 -10  -1   4   17.02   18.48
 -10  -1   4   37.94   16.70
  10   1  -4   22.68   16.82
  10   1  -4   62.81   18.50
 -10  -1   5  525.89  389.86
 -10  -1   5 1753.96  386.96
  10   1  -5 1458.51  387.25
 -10  -1   6    2.83   11.34
  10   1  -6    0.47   14.00
 -10  -1   7 1009.31  345.58
  10   1  -7 1090.61  346.03
 -10  -1   8    3.28   12.45
  10   1  -8    6.00   15.03
 -10  -1   9 1456.04  475.96
  10   1  -9 1420.41  476.18
 -10  -1  10  216.92   76.85
  10   1 -10  235.57   77.42
 -10  -1  11    5.76   14.18
  10   1 -11   13.26   16.90
 -10   0   1   10.36   10.15
 -10   0   1    1.53   12.62
  10   0  -1    1.16    8.22
  10   0  -1   19.86   18.10
 -10   0   2  160.29   70.26
 -10   0   2  268.01   69.66
  10   0  -2   96.34   69.62
  10   0  -2  367.15   70.65
 -10   0   3  173.23   74.46
 -10   0   3  263.64   74.01
  10   0  -3  172.36   74.36
  10   0  -3  302.15   74.20
 -10   0   4  154.85   37.29
  10   0  -4   43.67   36.44
  10   0  -4  146.29   37.34
 -10   0   5   30.10   31.79
 -10   0   5  111.32   32.11
  10   0  -5  128.08   32.47
 -10   0   6  612.75  218.82
  10   0  -6  711.58  219.04
 -10   0   7  551.56  202.09
  10   0  -7  670.77  202.33
 -10   0   8 1016.94  370.97
  10   0  -8 1230.81  371.20
 -10   0   9   21.64   14.90
  10   0  -9   30.02   16.55
 -10   0  10  239.49   81.26
  10   0 -10  240.05   81.62
 -10   0  11    0.64   13.76
  10   0 -11    9.60   14.27
 -10   1   1  329.68   78.33
  10  -1  -1  142.53   77.88
  10  -1  -1  275.34   77.71
 -10   1   2   30.08   12.23
  10  -1  -2    5.92   10.30
  10  -1  -2   24.51   11.62
 -10   1   3 1078.82  470.50
 -10   1   3 2040.88  466.75
  10  -1  -3 1010.91  470.29
  10  -1  -3 1791.59  466.55
 -10   1   4   68.41   47.07
 -10   1   4  226.43   47.86
  10  -1  -4   52.41   46.94
  10  -1  -4  316.94   48.33
 -10   1   5 1108.34  435.76
  10  -1  -5 1515.99  435.97
 -10   1   6    3.68   10.37
  10  -1  -6    7.91   11.06
 -10   1   7 1404.93  441.85
  10  -1  -7 1271.56  441.77
 -10   1   8   14.58   12.57
  10  -1  -8   22.68   13.53
 -10   1   9   16.35   15.53
  10  -1  -9   23.56   15.56
 -10   1  10    7.70   13.51
  10  -1 -10   16.48   12.86
 -10   1  11  105.86   27.63
  10  -1 -11    1.81   20.78
 -10   2   1   14.63   16.40
 -10   2   1   27.37   14.17
  10  -2  -1   34.59   13.25
 -10   2   2  666.44  295.05
 -10   2   2 1426.45  293.15
  10  -2  -2  661.86  295.02
  10  -2  -2 1007.68  292.51
 -10   2   3    6.43   12.78
 -10   2   3   16.32   10.34
  10  -2  -3    6.95    9.97
  10  -2  -3   10.88    9.23
 -10   2   4 3043.35  973.20
  10  -2  -4 2874.47  973.04
 -10   2   5    4.45    9.39
  10  -2  -5    1.73    8.36
 -10   2   6 1016.89  286.83
  10  -2  -6  743.48  286.44
 -10   2   7  410.33  136.59
  10  -2  -7  410.74  136.43
 -10   2   8  302.04   83.97
  10  -2  -8  207.68   83.33
 -10   2   9   83.55   32.44
  10  -2  -9   90.68   32.15
 -10   2  10   33.96   16.29
  10  -2 -10   16.24   15.83
 -10   2  11  165.15   31.92
  10  -2 -11   -0.91   27.64
 -10   3   1   13.03   10.80
 -10   3   1   15.66    9.38
  10  -3  -1   10.97   11.75
  10  -3  -1   20.07    9.14
 -10   3   2    0.66   10.03
 -10   3   2    4.36    9.67
  10  -3  -2    0.76    8.40
  10  -3  -2   -2.47    9.02
 -10   3   3 1035.01  437.10
  10  -3  -3 1557.71  437.24
 -10   3   4  419.82  136.66
  10  -3  -4  403.95  136.45
 -10   3   5  231.32   66.49
  10  -3  -5  168.06   66.02
 -10   3   6   86.33   37.63
  10  -3  -6  123.96   37.58
 -10   3   7   25.64   12.84
  10  -3  -7   11.57   12.27
 -10   3   8   52.36   21.51
  10  -3  -8   61.57   22.07
 -10   3   9   75.64   23.41
  10  -3  -9   50.94   23.84
 -10   3  10   17.12   14.39
  10  -3 -10   -0.39    7.30
 -10   4   1   10.31   13.53
 -10   4   1   -0.23    7.08
  10  -4  -1   -3.40   10.75
  10  -4  -1    2.30    7.14
 -10   4   2  621.95  406.84
 -10   4   2 1486.37  402.76
  10  -4  -2  951.36  406.69
  10  -4  -2 1379.35  402.57
 -10   4   3   15.24   10.60
  10  -4  -3   29.64   10.45
 -10   4   4  476.02  163.33
  10  -4  -4  507.79  163.30
 -10   4   5   63.29   23.92
  10  -4  -5   70.60   23.83
 -10   4   6   31.44   13.97
  10  -4  -6   36.52   13.64
 -10   4   7    3.58    8.09
  10  -4  -7    4.00    6.95
 -10   4   8  431.69  148.08
  10  -4  -8  456.97  147.98
 -10   4   9    2.12    9.13
  10  -4  -9    5.58    6.51
 -10   4  10   26.49   12.07
  10  -4 -10    3.92   12.35
 -10   5   1 1730.97  579.86
 -10   5   1 1665.12  573.48
  10  -5  -1 1476.08  579.16
  10  -5  -1 1911.76  573.45
 -10   5   2  474.40  149.55
  10  -5  -2  433.61  149.31
 -10   5   3  486.18  154.50
  10  -5  -3  451.57  154.26
 -10   5   4   30.42   14.44
  10  -5  -4   39.16   13.69
 -10   5   5  513.79  171.61
  10  -5  -5  521.15  171.45
 -10   5   6    4.68    9.76
 -10   5   7  407.26  103.56
  10  -5  -7  233.38  103.07
 -10   5   8   40.21   16.68
  10  -5  -8   47.33   16.44
 -10   5   9   52.22   12.11
  10  -5  -9   -0.89   10.02
 -10   6   1   39.40   15.69
  10  -6  -1   45.48   22.36
  10  -6  -1   44.15   15.23
 -10   6   2  148.69   47.70
  10  -6  -2  137.17   47.46
 -10   6   3    9.90    6.81
  10  -6  -3    7.07    5.99
 -10   6   4    1.33    5.96
  10  -6  -4    2.05    5.37
 -10   6   5   18.20    9.40
  10  -6  -5   21.27    8.69
 -10   6   6   47.95   15.32
  10  -6  -6   34.37   15.01
 -10   6   7   37.74   14.70
  10  -6  -7   35.44   13.83
 -10   6   8  116.07   22.03
  10  -6  -8   13.00   20.38
 -10   6   9   16.21   11.15
  10  -6  -9   -0.12    8.20
 -10   7   1  625.89  210.01
  10  -7  -1  641.81  209.89
 -10   7   2  344.35  131.93
  10  -7  -2  437.39  131.88
 -10   7   3   -0.02    6.90
  10  -7  -3    3.08    6.84
 -10   7   4   32.03   15.58
  10  -7  -4   47.49   15.15
 -10   7   5  305.35  101.54
 -10   7   6  154.26   54.93
  10  -7  -6  169.91   54.74
 -10   7   7  129.57   54.92
  10  -7  -7  189.99   54.96
 -10   7   8    7.16    9.75
  10  -7  -8   -1.01    7.76
 -10   8   1    5.23    6.38
  10  -8  -1   -3.16   20.72
  10  -8  -1    2.80    6.24
 -10   8   2  100.14   33.99
  10  -8  -2   98.96   33.80
 -10   8   3   69.82   25.85
  10  -8  -3   77.82   25.73
 -10   8   4  281.09   88.95
  10  -8  -4  255.74   88.82
 -10   8   5    3.44    6.99
  10  -8  -5   -0.06    7.18
 -10   8   6   40.41   18.15
  10  -8  -6   54.62   18.62
 -10   8   7   11.01   13.51
  10  -8  -7    0.71   12.54
 -10   9   1   57.21   21.29
  10  -9  -1   55.76   20.84
 -10   9   2   42.64   15.76
  10  -9  -2   31.31   15.01
 -10   9   3   85.23   29.81
  10  -9  -3   81.59   29.41
 -10   9   4   14.85   11.96
  10  -9  -4   22.47   11.28
 -10   9   5   15.58   13.50
  10  -9  -5   27.24   12.36
 -10   9   6  123.54   44.72
 -10  10   1   25.58   14.47
  10 -10  -1   18.11   11.45
 -10  10   2   32.93   16.22
  10 -10  -2   27.13   13.73
 -10  10   3  214.26   72.25
  10 -10  -3  210.70   71.48
 -10  10   4    6.54   13.40
  10 -10  -4   19.03   11.02
 -10  11   1   68.82   23.04
  10 -11  -1   41.40   19.89
 -10  11   2   -2.62   14.44
  10 -11  -2   -3.55    9.45
 -10  11   3   15.26   15.69
  10 -11  -3    2.39    9.77
  10 -12  -1   26.69   12.92
  -9  -6   6    0.17   15.91
   9   6  -6   73.75   20.66
  -9  -6   7   15.65   14.20
   9   6  -7   29.59   18.41
  -9  -6   8   16.13   14.13
   9   6  -8   28.03   18.22
  -9  -6   9   48.19   22.46
   9   6  -9   56.65   24.51
  -9  -6  10    6.58   13.54
   9   6 -10   -1.19   16.73
  -9  -5   3   80.20   19.44
  -9  -5   3    0.02   17.73
   9   5  -3   -0.21   18.96
   9   5  -3  131.64   22.74
  -9  -5   4  468.71  100.18
  -9  -5   4    0.48   96.86
   9   5  -4    2.81   97.48
  -9  -5   5    4.48   17.21
  -9  -5   5    9.41   14.37
   9   5  -5   -3.85   10.03
   9   5  -5   11.17   17.42
  -9  -5   6   90.57   43.57
  -9  -5   6  205.75   42.80
   9   5  -6    1.45   41.94
   9   5  -6  232.34   45.15
  -9  -5   7  153.52   53.92
   9   5  -7  159.71   55.46
  -9  -5   8   53.23   22.38
   9   5  -8   50.96   25.82
  -9  -5   9   97.80   37.39
   9   5  -9  113.54   40.14
  -9  -5  10   46.92   19.97
   9   5 -10   41.54   22.07
  -9  -5  11  123.90   43.34
   9   5 -11  123.33   44.45
  -9  -4   1  139.96   25.74
   9   4  -1    3.73   23.28
  -9  -4   2    5.13    8.73
  -9  -4   2   -1.68    9.57
   9   4  -2   -1.23    8.43
   9   4  -2   -1.61   10.34
  -9  -4   3  302.49   60.93
  -9  -4   3   -1.56   58.77
   9   4  -3    1.10   59.37
   9   4  -3  506.60   62.08
  -9  -4   4   38.24   16.52
  -9  -4   4   51.33   16.90
   9   4  -4    0.77   14.84
   9   4  -4   73.23   18.55
  -9  -4   5    6.70   12.55
  -9  -4   5   10.73   12.21
   9   4  -5    0.18   10.92
   9   4  -5   14.43   16.09
  -9  -4   6    5.77   15.90
  -9  -4   6   16.98   12.33
   9   4  -6    2.14   11.45
   9   4  -6   21.21   16.18
  -9  -4   7   40.50   33.58
  -9  -4   7  187.65   31.53
   9   4  -7    2.86   30.73
   9   4  -7  131.98   33.09
  -9  -4   8   65.06   19.52
   9   4  -8   13.03   19.72
   9   4  -8   69.06   22.66
  -9  -4   9    4.57   11.96
   9   4  -9   12.53   16.47
  -9  -4  10   63.45   23.83
   9   4 -10   53.22   24.30
  -9  -4  11  316.44   96.96
   9   4 -11  257.75   97.06
  -9  -4  12   10.64   12.22
   9   4 -12    0.14   12.40
  -9  -3   1   16.79   15.62
  -9  -3   1   -1.02   11.57
   9   3  -1    1.49    8.29
   9   3  -1   19.43   20.18
  -9  -3   2  416.14  117.62
  -9  -3   2    0.78  115.05
   9   3  -2  614.68  117.05
  -9  -3   3  291.20   81.98
  -9  -3   3  318.38   80.88
   9   3  -3    4.75   80.82
   9   3  -3  445.80   81.40
  -9  -3   4   35.41   22.48
  -9  -3   4   77.23   23.70
   9   3  -4   74.80   23.49
  -9  -3   5   28.69   16.91
  -9  -3   5   66.96   18.18
   9   3  -5   17.81   17.00
   9   3  -5   66.34   19.03
  -9  -3   6   36.57   21.20
  -9  -3   6   86.73   21.05
   9   3  -6   24.07   20.11
   9   3  -6   77.22   21.85
  -9  -3   7   30.92   25.53
  -9  -3   7   95.96   25.93
   9   3  -7   88.47   26.69
  -9  -3   8    8.97   22.18
  -9  -3   8  123.54   23.10
   9   3  -8   18.56   21.75
   9   3  -8   99.30   23.18
  -9  -3   9   10.18   12.05
   9   3  -9   14.53   11.65
  -9  -3  10 1203.69  346.77
   9   3 -10  880.99  346.48
  -9  -3  11  183.19   61.45
   9   3 -11  176.29   62.02
  -9  -3  12  137.56   48.38
   9   3 -12  127.76   48.02
  -9  -2   1  795.07  120.20
  -9  -2   1   -2.74  116.57
   9   2  -1   -0.91  117.98
   9   2  -1  792.10  119.85
  -9  -2   2   85.03   36.44
  -9  -2   2  124.31   34.66
   9   2  -2   76.42   34.88
   9   2  -2  120.96   35.92
  -9  -2   3   40.95   19.81
  -9  -2   3   52.31   19.63
   9   2  -3   38.34   18.34
   9   2  -3   64.17   19.46
  -9  -2   4    8.37    9.28
  -9  -2   4   18.91   11.32
   9   2  -4   12.69   10.93
   9   2  -4   12.36    9.75
  -9  -2   5   77.79   48.97
  -9  -2   5  210.33   49.45
   9   2  -5  116.23   49.37
   9   2  -5  170.25   48.92
  -9  -2   6   -1.72   10.82
  -9  -2   6    4.65   10.18
   9   2  -6    7.56    8.86
  -9  -2   7   31.73   14.45
   9   2  -7   26.99   13.49
  -9  -2   8   96.94   30.71
   9   2  -8   72.96   30.12
  -9  -2   9 1839.69  577.04
   9   2  -9 1653.06  577.03
   9   2 -10    4.32   14.01
  -9  -2  11  819.94  304.06
   9   2 -11 1050.50  304.81
  -9  -2  12   22.93   14.70
   9   2 -12    0.88   15.85
  -9  -1   1   57.54   24.44
  -9  -1   1   71.11   23.46
   9   1  -1   49.44   22.91
   9   1  -1   78.26   26.37
  -9  -1   2   11.17   10.82
  -9  -1   2    3.50   10.53
   9   1  -2    7.15    8.63
   9   1  -2    7.15   12.35
  -9  -1   3  193.88   61.84
   9   1  -3  148.51   62.46
   9   1  -3  216.11   62.13
  -9  -1   4  393.44  164.53
  -9  -1   4  607.11  162.86
   9   1  -4  404.15  164.19
   9   1  -4  573.66  162.89
  -9  -1   5    8.73   11.28
  -9  -1   5   14.85   10.31
   9   1  -5   18.58   10.97
  -9  -1   6   -1.11    8.90
   9   1  -6    3.27    9.94
  -9  -1   7  505.26  154.78
   9   1  -7  424.72  154.79
  -9  -1   8 1547.92  552.13
   9   1  -8 1814.43  552.38
  -9  -1   9  123.22   48.87
   9   1  -9  167.28   49.98
  -9  -1  10  453.36  150.33
   9   1 -10  449.70  150.68
  -9  -1  11    6.67   13.21
   9   1 -11    0.06   18.32
  -9  -1  12 1993.83  331.57
   9   1 -12    6.05  328.67
  -9   0   1  761.60  246.49
  -9   0   1  697.67  244.07
   9   0  -1  652.33  246.19
   9   0  -1  853.66  244.10
  -9   0   2  235.93   96.37
  -9   0   2  343.33   95.47
   9   0  -2  251.66   96.14
   9   0  -2  321.10   95.46
  -9   0   3  147.41   48.64
  -9   0   3  126.81   47.64
   9   0  -3   88.33   47.76
   9   0  -3  215.26   48.52
  -9   0   4  166.76   89.04
  -9   0   4  301.23   88.52
   9   0  -4  245.44   90.49
   9   0  -4  366.91   88.92
  -9   0   5    4.71    9.50
   9   0  -5    9.41   11.41
   9   0  -5    7.60   11.28
  -9   0   6  602.09  203.72
   9   0  -6  631.15  203.95
  -9   0   7 1811.10  648.70
   9   0  -7 2150.13  648.95
  -9   0   8   38.51   15.97
   9   0  -8   28.66   16.96
  -9   0   9  127.41   44.28
   9   0  -9  128.28   44.65
  -9   0  10    6.72   11.24
   9   0 -10   -0.47   12.72
  -9   0  11 1756.20  466.00
   9   0 -11 1067.06  465.61
  -9   0  12   21.27   19.72
   9   0 -12  -11.25   22.03
  -9   1   1   21.12   11.47
  -9   1   1   32.82   12.46
   9  -1  -1   17.28   12.13
   9  -1  -1   35.22   13.86
  -9   1   2   34.68   15.40
  -9   1   2   55.60   15.81
   9  -1  -2   23.59   15.43
   9  -1  -2   44.21   15.96
  -9   1   3   95.27   29.51
   9  -1  -3   50.87   30.81
   9  -1  -3   92.32   29.60
  -9   1   4  297.68  110.17
   9  -1  -4  269.77  111.94
   9  -1  -4  398.96  110.32
  -9   1   5   59.26   25.04
   9  -1  -5   79.74   25.27
  -9   1   6 1624.62  547.23
   9  -1  -6 1690.15  547.26
  -9   1   7   66.97   24.46
   9  -1  -7   67.11   24.81
  -9   1   8 1973.93  764.81
   9  -1  -8 2642.67  765.02
  -9   1   9   38.61   17.65
   9  -1  -9   44.70   18.04
  -9   1  10  553.79  156.09
   9  -1 -10  397.23  155.62
  -9   1  11   95.64   22.76
   9  -1 -11    2.47   18.41
  -9   1  12   16.58   17.17
   9  -1 -12    5.82   16.22
  -9   2   1  990.58  415.63
  -9   2   1 1390.89  412.08
   9  -2  -1 1105.42  415.54
   9  -2  -1 1532.40  411.97
  -9   2   2   75.33   30.47
  -9   2   2   79.39   29.25
   9  -2  -2   84.14   30.31
   9  -2  -2   74.04   30.91
   9  -2  -2   99.28   29.09
  -9   2   3  268.17  111.73
  -9   2   3  429.13  110.72
   9  -2  -3  235.41  111.48
   9  -2  -3  399.42  110.55
  -9   2   4  226.69   83.16
   9  -2  -4  269.65   83.19
  -9   2   5  918.56  296.89
   9  -2  -5  880.40  296.81
  -9   2   6  581.91  194.10
   9  -2  -6  590.03  194.03
  -9   2   7 1610.62  545.02
   9  -2  -7 1683.34  544.94
  -9   2   8   55.49   24.82
   9  -2  -8   76.85   24.53
  -9   2   9 2099.09  666.16
   9  -2  -9 1954.59  665.96
  -9   2  10  502.87  135.83
   9  -2 -10  319.05  135.17
  -9   2  11   20.66   17.40
   9  -2 -11   -0.71    9.14
  -9   3   1   62.52   17.72
   9  -3  -1   33.24   17.29
   9  -3  -1   54.93   19.65
   9  -3  -1   41.35   17.18
  -9   3   2   41.06   20.18
  -9   3   2   67.02   20.05
   9  -3  -2   35.77   19.63
   9  -3  -2   49.67   20.45
   9  -3  -2   68.40   19.63
  -9   3   3  339.93  113.48
   9  -3  -3  342.62  113.28
  -9   3   4  855.76  285.46
   9  -3  -4  869.43  285.30
  -9   3   5   96.15   32.75
   9  -3  -5   91.16   32.27
  -9   3   6 1008.63  333.89
   9  -3  -6 1011.83  333.77
  -9   3   7   93.48   33.62
   9  -3  -7  100.66   34.01
  -9   3   8  798.28  278.34
   9  -3  -8  880.94  278.37
  -9   3   9    2.89    8.32
   9  -3  -9    2.25    7.88
  -9   3  10   -0.53   13.82
   9  -3 -10   -1.42    6.15
  -9   3  11   13.47   13.72
   9  -3 -11   -1.04    6.98
  -9   4   1  252.88   93.21
  -9   4   1  262.31   93.48
  -9   4   1  295.26   91.85
   9  -4  -1  222.77   93.05
   9  -4  -1  274.33   93.68
   9  -4  -1  313.93   91.72
  -9   4   2  513.20  205.84
  -9   4   2  651.03  203.30
   9  -4  -2  421.81  205.45
   9  -4  -2  733.54  203.28
  -9   4   3  919.48  237.26
   9  -4  -3  550.87  236.92
  -9   4   4    9.01    6.89
   9  -4  -4    5.17    6.38
  -9   4   5 2548.74  833.40
   9  -4  -5 2508.50  833.31
  -9   4   6   -1.30    6.83
   9  -4  -6    1.41    6.09
  -9   4   7    4.72    7.52
   9  -4  -7    5.86    6.41
  -9   4   8   66.79   21.22
   9  -4  -8   49.93   20.45
  -9   4   9   34.46   15.55
   9  -4  -9   23.07   12.49
  -9   4  10  192.83   31.52
   9  -4 -10   -0.64   29.53
  -9   5   1   22.91   22.03
  -9   5   1   53.00   26.91
  -9   5   1  113.49   22.08
   9  -5  -1   24.65   23.63
   9  -5  -1   16.82   22.87
   9  -5  -1   81.18   21.29
  -9   5   2  656.14  184.35
   9  -5  -2  355.95  186.19
   9  -5  -2  583.64  184.12
  -9   5   3   25.71   12.23
   9  -5  -3   30.81   11.37
  -9   5   4 2415.60  904.43
   9  -5  -4 2974.20  904.41
  -9   5   5    0.60    7.47
   9  -5  -5    0.50    6.17
  -9   5   6  715.75  238.97
   9  -5  -6  728.18  238.86
  -9   5   7  178.18   68.54
   9  -5  -7  226.57   68.54
  -9   5   8   45.56   16.57
   9  -5  -8   43.84   16.14
  -9   5   9    3.28    8.39
   9  -5  -9   -0.09    6.84
  -9   5  10   13.36   12.08
  -9   6   1  385.83  178.55
  -9   6   1  625.14  176.71
   9  -6  -1  553.73  179.01
   9  -6  -1  483.33  178.77
   9  -6  -1  555.50  176.51
  -9   6   2  292.74   97.43
   9  -6  -2  265.78   99.19
   9  -6  -2  214.43   98.97
   9  -6  -2  328.49   97.32
  -9   6   3  491.57  160.34
   9  -6  -3  479.64  160.19
  -9   6   4   29.69   13.72
   9  -6  -4   40.92   13.28
  -9   6   5  548.39  158.79
   9  -6  -5  431.94  158.51
  -9   6   6   69.57   26.80
   9  -6  -6   82.71   26.50
  -9   6   7   58.59   19.97
   9  -6  -7   51.92   19.39
  -9   6   8   36.84   12.16
   9  -6  -8    1.09    9.03
  -9   6   9  114.10   21.37
   9  -6  -9    0.70   18.93
  -9   7   1   85.61   60.87
  -9   7   1  268.55   60.48
   9  -7  -1  227.16   62.58
   9  -7  -1   76.78   61.04
   9  -7  -1  217.96   60.11
  -9   7   2 1296.02  394.51
   9  -7  -2  575.01  397.97
   9  -7  -2 1434.55  394.42
  -9   7   3  128.19   46.87
   9  -7  -3  146.91   46.67
  -9   7   4    4.36    6.99
   9  -7  -4    4.55    6.01
  -9   7   5   62.76   25.02
   9  -7  -5   77.63   24.78
  -9   7   6   37.11   16.56
   9  -7  -6   49.16   16.24
  -9   7   7   48.29   19.24
   9  -7  -7   51.47   18.46
  -9   7   8  368.25   62.07
   9  -7  -8    3.76   59.93
  -9   8   1 1242.02  459.71
   9  -8  -1 1256.29  464.95
   9  -8  -1 1559.26  459.77
  -9   8   2   47.96   19.56
   9  -8  -2   32.10   25.90
   9  -8  -2   66.63   19.67
  -9   8   3  912.68  337.20
   9  -8  -3 1111.38  337.25
  -9   8   4   12.05    7.70
   9  -8  -4   10.19    7.74
  -9   8   5   15.11   10.00
   9  -8  -5   22.36   10.28
  -9   8   6   95.07   32.66
   9  -8  -6   88.48   32.24
  -9   8   7   79.64   19.03
   9  -8  -7   -0.08   16.09
  -9   9   1    2.02    8.85
   9  -9  -1    1.10    7.05
  -9   9   2 1343.22  460.05
   9  -9  -2 1025.70  465.34
   9  -9  -2 1543.34  460.01
  -9   9   3  162.55   61.71
   9  -9  -3  199.06   61.51
  -9   9   4    0.66    9.94
   9  -9  -4    3.81    7.92
  -9   9   5  262.98   94.46
   9  -9  -5  295.38   93.97
  -9   9   6   19.83   17.54
  -9  10   1  381.95  111.07
   9 -10  -1  187.13  115.55
   9 -10  -1  336.12  110.48
  -9  10   2   83.18   31.47
   9 -10  -2   85.94   30.03
  -9  10   3   27.34   15.88
   9 -10  -3   19.13   12.33
  -9  10   4   14.68   15.61
   9 -10  -4    9.55   12.94
  -9  10   5   92.62   22.16
   9 -10  -5    2.42   16.03
  -9  11   1   72.84   30.31
   9 -11  -1   80.11   28.36
  -9  11   2   18.87   18.66
   9 -11  -2   26.35   13.80
  -9  11   3   20.34   18.75
   9 -11  -3   20.25   13.90
  -9  11   4   60.00   22.48
   9 -11  -4   -0.61   11.75
  -9  12   1   17.16   21.44
   9 -12  -1   24.16   13.17
  -9  12   2   56.64   29.11
   9 -12  -2   47.13   19.61
  -8  -7   5    6.58   43.68
   8   7  -5  275.01   46.60
   8   7  -6    1.07   14.33
  -8  -7   7  857.79  275.41
   8   7  -7  798.64  275.61
  -8  -7   8    4.49   10.93
   8   7  -8   10.21   12.97
  -8  -7   9  148.89   55.03
   8   7  -9  176.21   56.30
  -8  -7  10   -3.09   10.11
   8   7 -10    3.23   16.06
  -8  -7  11    5.89   10.65
   8   7 -11    2.48   17.41
  -8  -6   2   10.01   13.57
   8   6  -2    4.10    9.63
  -8  -6   3    0.70   12.99
   8   6  -3    3.76   14.29
   8   6  -3  109.65   22.54
  -8  -6   4  600.14   95.33
  -8  -6   4    1.28   90.48
   8   6  -4    5.11   92.01
   8   6  -4  610.58   94.23
  -8  -6   5   21.49   19.24
  -8  -6   5   38.08   13.01
   8   6  -5    1.77   13.03
   8   6  -5   31.93   14.09
  -8  -6   6  272.57   82.14
  -8  -6   6  319.44   79.40
   8   6  -6    3.16   79.60
   8   6  -6  350.65   79.97
  -8  -6   7   65.98   33.53
  -8  -6   7  129.74   28.95
   8   6  -7   -3.82   30.80
   8   6  -7  109.50   29.63
  -8  -6   8  827.00  298.37
  -8  -6   8 1375.89  294.82
   8   6  -8  -15.38  296.93
   8   6  -8 1213.26  294.91
  -8  -6   9   -1.03    9.02
   8   6  -9   -3.95   10.64
  -8  -6  10    0.48    9.34
   8   6 -10   -2.14   11.19
  -8  -6  11  371.97  124.80
   8   6 -11  376.98  125.75
  -8  -6  12    4.98   13.58
   8   6 -12   -4.33   16.91
  -8  -5   1  196.53   30.33
  -8  -5   1   -0.35   29.21
   8   5  -1   -2.52   27.92
   8   5  -1  163.47   34.31
  -8  -5   2  265.05   42.72
  -8  -5   2    0.46   40.98
   8   5  -2    1.82   40.03
   8   5  -2  279.12   45.31
  -8  -5   3  603.71  106.16
  -8  -5   3   -0.91  102.56
   8   5  -3    1.96  104.07
   8   5  -3  805.25  106.32
  -8  -5   4   93.70   30.77
  -8  -5   4  120.80   28.11
   8   5  -4   -1.25   27.37
   8   5  -4  109.20   29.25
  -8  -5   5   87.47   29.86
  -8  -5   5   88.71   24.42
   8   5  -5    3.11   24.26
   8   5  -5   96.37   25.77
  -8  -5   6   38.20   19.10
  -8  -5   6   27.97   13.00
   8   5  -6    4.30   13.71
   8   5  -6   44.96   14.00
  -8  -5   7  274.71   79.29
  -8  -5   7  267.78   76.49
   8   5  -7    1.37   76.97
   8   5  -7  367.95   77.09
  -8  -5   8   74.96   33.91
  -8  -5   8  103.98   27.27
   8   5  -8    1.94   29.55
   8   5  -8  114.81   27.84
  -8  -5   9    6.07   15.35
  -8  -5   9   14.30    9.03
   8   5  -9   -6.93   16.83
   8   5  -9   17.23   10.78
  -8  -5  10   95.09   32.90
   8   5 -10   90.64   33.61
  -8  -5  11   19.69   14.46
   8   5 -11   20.05   19.17
  -8  -5  12    2.07   13.33
   8   5 -12    5.28   18.95
  -8  -4   1   59.62   17.90
  -8  -4   1    1.09   18.75
   8   4  -1   54.29   17.05
   8   4  -1   50.65   18.53
  -8  -4   2  640.41  201.75
  -8  -4   2  556.85  200.00
   8   4  -2  499.08  201.24
   8   4  -2  792.19  200.65
  -8  -4   3   35.54   16.23
  -8  -4   3   33.30   14.79
   8   4  -3   24.83   13.90
   8   4  -3   39.50   16.63
  -8  -4   4 1181.65  360.49
  -8  -4   4 1230.02  356.86
   8   4  -4  901.86  360.01
   8   4  -4 1026.87  356.83
  -8  -4   5  113.22   42.29
  -8  -4   5   94.15   39.08
   8   4  -5  141.37   39.63
  -8  -4   6  399.23  155.11
  -8  -4   6  471.83  152.95
   8   4  -6  397.62  154.78
   8   4  -6  587.32  153.31
  -8  -4   7   11.22   10.70
  -8  -4   7    7.44    8.25
   8   4  -7   10.41   11.12
   8   4  -7   11.69    9.27
  -8  -4   8  101.88   56.84
  -8  -4   8  228.83   55.49
   8   4  -8  100.33   56.57
   8   4  -8  218.11   55.77
  -8  -4   9    0.93   19.24
  -8  -4   9   75.54   17.96
   8   4  -9   13.74   19.06
   8   4  -9   79.77   20.15
  -8  -4  10    0.94   10.97
   8   4 -10   -2.46   15.77
  -8  -4  11  119.17   47.47
   8   4 -11  164.23   49.29
  -8  -4  12  125.38   48.71
   8   4 -12  157.04   49.03
  -8  -4  13   -2.99   12.85
   8   4 -13    4.90   15.00
  -8  -3   1  419.75  151.86
  -8  -3   1  433.78  150.19
   8   3  -1  398.49  151.57
   8   3  -1  589.40  150.55
  -8  -3   2  561.08  190.94
  -8  -3   2  493.08  188.98
   8   3  -2  493.60  190.66
   8   3  -2  813.02  189.57
  -8  -3   3  751.07  292.08
  -8  -3   3  829.17  289.25
   8   3  -3  869.01  291.93
   8   3  -3 1102.84  289.75
  -8  -3   4    8.54   10.06
   8   3  -4    9.11    8.68
   8   3  -4   13.61   12.60
  -8  -3   5 1994.02  718.44
  -8  -3   5 2056.43  711.95
   8   3  -5 1909.66  718.20
   8   3  -5 2820.68  712.35
  -8  -3   6  132.48   55.54
  -8  -3   6  164.64   54.38
   8   3  -6  126.66   55.13
   8   3  -6  236.71   55.12
  -8  -3   7   21.59   16.80
  -8  -3   7   42.67   16.34
   8   3  -7   29.52   16.43
   8   3  -7   65.01   18.38
  -8  -3   8  206.65   53.91
   8   3  -8   71.48   53.91
   8   3  -8  218.08   55.10
  -8  -3   9  113.98   39.99
   8   3  -9  117.78   41.32
  -8  -3  10  194.21   63.13
   8   3 -10  176.14   64.00
  -8  -3  11   11.14   12.29
   8   3 -11   11.81   11.57
  -8  -3  12    3.89   13.18
   8   3 -12    1.10   10.08
  -8  -3  13  170.43   37.18
   8   3 -13   -1.43   35.14
  -8  -2   1   14.80    9.09
  -8  -2   1   18.55    8.92
   8   2  -1   17.08    8.98
   8   2  -1   19.48    9.07
  -8  -2   2  453.71  180.86
  -8  -2   2  609.95  179.40
   8   2  -2  450.70  180.71
   8   2  -2  685.41  179.36
  -8  -2   3   46.23   19.66
  -8  -2   3   58.58   19.88
   8   2  -3   47.34   19.47
   8   2  -3   61.54   20.42
  -8  -2   4 1025.60  301.25
   8   2  -4  617.80  303.57
   8   2  -4 1212.30  301.50
  -8  -2   5    1.92    9.12
  -8  -2   5    5.41    8.74
   8   2  -5    4.26    6.22
   8   2  -5    4.68   12.80
   8   2  -5    0.83   10.92
  -8  -2   6   36.89   17.57
  -8  -2   6   52.26   17.39
   8   2  -6   31.36   16.79
   8   2  -6   37.67   20.62
   8   2  -6   67.47   19.09
  -8  -2   7    5.71    8.08
  -8  -2   7    1.66   12.66
  -8  -2   7   39.89    9.39
   8   2  -7    1.04    7.28
   8   2  -7    4.83   11.16
   8   2  -7   17.40   13.09
  -8  -2   8   19.11   10.99
   8   2  -8    8.31   10.68
  -8  -2   9  179.88   56.26
   8   2  -9  151.29   56.13
  -8  -2  10   66.68   24.13
   8   2 -10   61.85   24.07
  -8  -2  11    3.36   11.11
   8   2 -11   -2.72   13.20
  -8  -2  12 1267.50  237.37
   8   2 -12    0.85  235.49
  -8  -2  13   44.70   18.81
   8   2 -13   -1.29   17.95
  -8  -1   1 2717.45  895.85
  -8  -1   1 3035.28  887.98
   8   1  -1 2331.42  895.60
   8   1  -1 2737.40  887.94
  -8  -1   2  421.08  148.37
  -8  -1   2  415.51  146.72
   8   1  -2  513.64  148.31
   8   1  -2  412.59  146.65
  -8  -1   3  134.30   42.26
   8   1  -3  123.17   42.65
   8   1  -3  112.43   43.80
   8   1  -3  124.41   42.06
  -8  -1   4  120.18   38.16
   8   1  -4   96.52   38.24
   8   1  -4  123.20   39.71
   8   1  -4  114.94   37.95
  -8  -1   5   27.39   13.01
  -8  -1   5   35.25   13.80
   8   1  -5   28.37   12.73
   8   1  -5   27.43   14.75
   8   1  -5   41.12   13.13
  -8  -1   6  303.78  299.99
  -8  -1   6 1146.29  297.39
   8   1  -6  680.72  300.15
   8   1  -6 1167.73  297.37
  -8  -1   7   20.69   10.34
   8   1  -7    8.13    8.91
  -8  -1   8    2.64    8.89
   8   1  -8    2.49    8.50
   8   1  -9  300.41  100.28
  -8  -1  10  101.09   36.75
   8   1 -10  109.43   37.73
  -8  -1  11 2426.36  800.87
  -8  -1  12   47.46   18.76
   8   1 -12    2.21   17.01
   8   1 -13   -2.59   24.57
  -8   0   1   98.71   31.65
  -8   0   1   84.66   30.45
   8   0  -1   85.25   30.98
   8   0  -1   89.38   30.58
  -8   0   2 1250.19  535.17
  -8   0   2 1621.92  530.43
   8   0  -2 1741.90  535.16
   8   0  -2 1573.17  535.65
   8   0  -2 1806.22  530.54
  -8   0   3  469.49  158.34
  -8   0   3  446.81  156.61
   8   0  -3  425.85  158.18
   8   0  -3  506.50  158.77
   8   0  -3  538.30  156.71
  -8   0   4   17.30    7.66
   8   0  -4    8.05   10.94
   8   0  -4   17.87    7.68
  -8   0   5   77.20   19.51
  -8   0   5   53.56   19.44
   8   0  -5   25.60   20.69
   8   0  -5   50.46   19.48
  -8   0   6   15.08    9.03
   8   0  -6   10.41    9.96
  -8   0   7    7.21    8.48
   8   0  -7    8.06   10.18
  -8   0   8    5.77    9.30
   8   0  -8    7.90   11.03
  -8   0   9  114.05   39.32
   8   0  -9  112.27   39.68
  -8   0  10 1192.43  327.23
   8   0 -10  790.72  327.02
  -8   0  11   29.94   18.28
   8   0 -11   32.26   17.27
  -8   0  12  313.23   54.24
   8   0 -12    4.55   50.84
  -8   0  13   25.92   18.92
   8   0 -13   -0.22   15.04
  -8   1   1  433.68  201.85
  -8   1   1  543.14  199.86
  -8   1   1  323.60  199.94
   8  -1  -1 1088.61  202.18
   8  -1  -1  459.06  202.11
   8  -1  -1  310.18  199.85
   8  -1  -1  743.35  200.01
  -8   1   2   38.73   16.32
  -8   1   2   46.93   16.19
  -8   1   2   34.00   16.98
   8  -1  -2   55.15   17.71
   8  -1  -2   39.00   17.35
   8  -1  -2   53.52   16.17
  -8   1   3  942.88  252.42
  -8   1   3  636.61  252.42
   8  -1  -3  644.93  254.51
   8  -1  -3  883.91  255.05
   8  -1  -3  672.03  252.37
   8  -1  -3  817.75  252.35
  -8   1   4   79.72   13.75
  -8   1   4   45.18   13.97
  -8   1   4   -0.28   13.08
   8  -1  -4    0.26   12.56
   8  -1  -4   41.65   13.33
  -8   1   5  119.93   40.54
   8  -1  -5  120.40   40.57
  -8   1   6  420.55  145.83
   8  -1  -6  460.13  145.92
  -8   1   7  612.62  239.51
   8  -1  -7  831.87  239.69
  -8   1   8  127.54   39.79
   8  -1  -8  104.82   39.84
   8  -1  -9 1463.33  483.27
  -8   1  10  423.44  132.55
   8  -1 -10  376.97  132.49
   8  -1 -11   -4.51   10.66
   8  -1 -12    2.08   13.61
  -8   2   1   12.46    7.79
  -8   2   1    9.02    5.39
  -8   2   1   13.38   12.25
   8  -2  -1    5.58    5.78
   8  -2  -1    4.25    8.56
   8  -2  -1    5.91    7.75
   8  -2  -1    9.16    6.10
  -8   2   2   94.91   31.59
  -8   2   2   97.29   30.45
  -8   2   2   80.54   31.66
   8  -2  -2   75.33   31.23
   8  -2  -2  100.44   31.20
   8  -2  -2   74.76   30.90
   8  -2  -2  103.35   30.44
  -8   2   3  751.54  248.03
  -8   2   3  916.51  245.74
  -8   2   3  704.53  245.83
   8  -2  -3  565.69  247.80
   8  -2  -3  745.73  248.10
   8  -2  -3  767.66  245.72
   8  -2  -3  745.39  245.57
  -8   2   4  680.96  206.72
  -8   2   4  564.08  206.85
   8  -2  -4  506.80  206.65
   8  -2  -4  705.37  206.69
  -8   2   5   75.78   24.21
   8  -2  -5   64.64   24.06
  -8   2   6    4.50    7.28
   8  -2  -6    4.46    7.34
  -8   2   7  357.54  116.25
   8  -2  -7  343.63  116.11
  -8   2   8 2704.66  820.99
   8  -2  -8 2327.30  820.75
  -8   2   9   23.42   14.93
   8  -2  -9   17.25   11.92
  -8   2  10  793.88  304.22
   8  -2 -10 1034.94  304.33
  -8   2  11   54.70   15.96
   8  -2 -11   -0.25   11.04
   8  -2 -12   -2.40    8.80
  -8   3   1   60.86   22.89
  -8   3   1   64.78   22.24
  -8   3   1   55.45   22.79
   8  -3  -1   60.26   22.62
   8  -3  -1   85.28   23.57
   8  -3  -1   63.34   22.41
   8  -3  -1   63.95   22.04
  -8   3   2   89.32   32.47
  -8   3   2  114.27   31.97
  -8   3   2   85.11   31.98
   8  -3  -2  104.15   32.69
   8  -3  -2   61.06   31.59
   8  -3  -2  108.54   31.68
  -8   3   3  450.34   89.69
  -8   3   3  137.02   89.19
   8  -3  -3  164.59   89.10
   8  -3  -3  309.31   89.25
  -8   3   4  161.20   39.90
  -8   3   4   67.46   39.74
   8  -3  -4  119.22   39.52
  -8   3   5   92.03   33.82
   8  -3  -5  104.97   33.66
  -8   3   6  142.33   45.06
   8  -3  -6  124.86   44.71
  -8   3   7  620.13  178.86
   8  -3  -7  472.26  178.59
  -8   3   8   11.64    8.59
   8  -3  -8   13.07    8.30
  -8   3   9  969.15  319.75
   8  -3  -9  966.44  319.63
  -8   3  10  185.82   31.33
   8  -3 -10    0.62   27.45
  -8   3  11  179.86   30.55
   8  -3 -11    0.72   29.22
  -8   4   1  731.24  193.55
  -8   4   1  464.99  191.06
  -8   4   1  451.67  191.14
   8  -4  -1  525.72  193.16
   8  -4  -1  667.17  193.28
   8  -4  -1  485.77  191.11
   8  -4  -1  737.01  191.17
  -8   4   2  417.86  101.35
  -8   4   2  199.86  101.13
   8  -4  -2  239.89  101.14
   8  -4  -2  340.80  101.13
  -8   4   3   44.76   10.58
  -8   4   3   16.37   10.67
   8  -4  -3   22.02   10.74
   8  -4  -3   24.89   10.19
  -8   4   4 1759.05  490.54
   8  -4  -4 1264.59  490.32
  -8   4   5    7.81    6.56
   8  -4  -5    7.77    6.07
  -8   4   6  480.89  162.41
   8  -4  -6  498.05  162.30
  -8   4   7  322.60  111.05
   8  -4  -7  342.87  110.90
  -8   4   8 1200.88  395.18
   8  -4  -8 1193.40  395.06
  -8   4   9  182.78   73.68
   8  -4  -9  249.57   73.60
  -8   4  10  178.22   27.63
   8  -4 -10    0.03   26.26
  -8   4  11   21.11   14.29
   8  -4 -11   -1.32    9.11
  -8   5   1  365.61  166.00
  -8   5   1  698.88  164.63
  -8   5   1  433.82  164.48
   8  -5  -1  599.21  166.60
   8  -5  -1  425.95  166.13
   8  -5  -1  312.91  164.27
   8  -5  -1  661.02  164.48
  -8   5   2    7.28    5.27
  -8   5   2    1.02    6.34
   8  -5  -2    7.45    8.36
   8  -5  -2    7.38    7.04
   8  -5  -2    2.55    5.63
   8  -5  -2    8.38    4.46
  -8   5   3   35.02   13.35
   8  -5  -3   37.15   12.98
  -8   5   4    3.27    6.80
   8  -5  -4    2.26    5.63
  -8   5   5 1704.91  520.27
   8  -5  -5 1478.72  520.09
  -8   5   6    3.09    9.70
   8  -5  -6   36.81   10.89
  -8   5   7 1422.55  446.65
   8  -5  -7 1301.86  446.49
  -8   5   8   91.69   30.65
   8  -5  -8   85.79   30.58
  -8   5   9  371.04   55.05
   8  -5  -9   -0.49   53.05
   8  -5 -10    0.71    8.42
  -8   6   1  344.08  123.43
  -8   6   1  376.48  122.17
   8  -6  -1  459.79  124.14
   8  -6  -1  325.82  123.55
   8  -6  -1  370.22  122.05
  -8   6   2    5.99    4.57
   8  -6  -2    5.01    4.01
  -8   6   3  100.58   33.97
   8  -6  -3   99.82   33.66
  -8   6   4  406.58  115.36
   8  -6  -4  307.31  115.08
  -8   6   5  400.41  125.27
   8  -6  -5  360.37  124.95
  -8   6   6 1296.79  431.98
   8  -6  -6 1317.11  431.84
  -8   6   7    7.45    9.06
   8  -6  -7    2.10    7.54
  -8   6   8   90.70   18.67
   8  -6  -8    0.14   15.13
  -8   6   9   44.92   13.55
   8  -6  -9    0.08   11.02
  -8   7   1  281.40  145.28
  -8   7   1  543.05  144.06
   8  -7  -1  550.41  146.21
   8  -7  -1  364.76  145.55
   8  -7  -1  472.07  143.84
  -8   7   2   71.39   41.88
  -8   7   2  136.45   41.57
   8  -7  -2  155.37   43.73
   8  -7  -2  146.51   41.23
  -8   7   3  520.99  175.25
   8  -7  -3  536.21  175.14
  -8   7   4    7.85    8.42
   8  -7  -4    6.97    6.16
  -8   7   5  978.05  324.72
   8  -7  -5  987.27  324.63
  -8   7   6   15.14    8.35
   8  -7  -6   10.03    8.22
  -8   7   7  116.40   41.38
   8  -7  -7  123.00   41.06
  -8   8   1    9.70   15.09
  -8   8   1   40.35   14.52
   8  -8  -1   44.93   18.52
   8  -8  -1   59.01   14.65
  -8   8   2  628.66  540.41
  -8   8   2 1996.68  536.02
   8  -8  -2 2190.20  536.02
  -8   8   3   13.69   11.77
  -8   8   3    8.84    8.86
  -8   8   3   29.78    8.51
   8  -8  -3    6.58   10.79
   8  -8  -3   31.39    9.68
  -8   8   4  967.48  365.53
   8  -8  -4 1227.09  365.60
  -8   8   5  424.23  173.46
   8  -8  -5  608.79  173.56
  -8   8   6  657.70  197.03
   8  -8  -6  544.48  196.62
  -8   8   7   25.13   16.39
   8  -8  -7    2.14   10.61
  -8   8   8   84.21   26.63
   8  -8  -8   -0.34   16.62
  -8   9   1 1232.18  387.97
   8  -9  -1 1042.85  392.77
  -8   9   2  423.49  140.71
   8  -9  -2  424.15  140.40
  -8   9   3   33.17  198.82
  -8   9   3  714.14  197.04
   8  -9  -3  382.01  199.96
   8  -9  -3  828.99  196.88
  -8   9   4   47.21   19.83
   8  -9  -4   45.05   17.82
  -8   9   5  310.19   78.89
   8  -9  -5  171.35   77.33
  -8   9   6   18.18   18.79
   8  -9  -6    1.23   10.53
  -8  10   1   14.76   13.17
   8 -10  -1   13.53   11.25
  -8  10   2  435.42  153.69
   8 -10  -2  479.86  153.38
  -8  10   3    5.40   17.51
  -8  10   3   22.40   15.41
   8 -10  -3    1.57   22.60
   8 -10  -3   22.99   14.75
  -8  10   4  363.16  126.27
   8 -10  -4  384.50  125.57
  -8  10   5   47.97   20.24
   8 -10  -5   -1.23   11.25
  -8  11   1  335.91   86.64
   8 -11  -1   -6.59   94.73
   8 -11  -1  277.34   84.84
  -8  11   2  108.36   40.70
   8 -11  -2  105.61   37.17
  -8  11   3 1918.62  450.89
   8 -11  -3 1121.88  449.08
  -8  11   4    8.64   22.15
   8 -11  -4    1.14    8.95
  -8  12   1    3.51   19.51
   8 -12  -1    0.14   13.79
  -8  12   2  797.57  168.35
   8 -12  -2  363.56  164.23
  -7  -8   4  289.79   53.15
   7   8  -4    2.04   49.76
  -7  -8   5    4.99   19.66
  -7  -8   5   -4.38   10.55
   7   8  -5    1.01   14.16
   7   8  -5    7.83   26.08
  -7  -8   6  141.22   55.11
  -7  -8   6  209.13   52.36
   7   8  -6   -1.69   51.53
   7   8  -6  212.45   52.90
  -7  -8   7   10.69   23.71
  -7  -8   7   11.04   13.27
   7   8  -7    4.36   16.19
   7   8  -7   13.19   14.31
  -7  -8   8   17.44   27.08
  -7  -8   8    7.42   10.16
   7   8  -8   13.13   14.00
  -7  -8   9   -1.23    9.24
   7   8  -9    1.92   13.22
  -7  -8  10  106.94   33.33
   7   8 -10   71.84   34.46
  -7  -8  11  407.52  137.78
   7   8 -11  419.66  138.37
  -7  -7   1    3.79   14.97
   7   7  -1    1.37   12.72
  -7  -7   2   31.70   17.44
  -7  -7   2   -7.87   15.82
   7   7  -2   -0.26   11.22
   7   7  -2   41.54   20.69
  -7  -7   3  240.11   42.25
  -7  -7   3   -3.85   37.89
   7   7  -3    4.87   38.20
   7   7  -3  236.15   42.54
  -7  -7   4    8.07   17.40
  -7  -7   4    3.58   10.71
   7   7  -4   -2.56   11.14
   7   7  -4   17.14   18.30
  -7  -7   5   90.99   31.21
  -7  -7   5   89.90   27.32
   7   7  -5    4.34   27.30
   7   7  -5   96.29   27.66
  -7  -7   6   32.93   22.39
  -7  -7   6   45.17   15.38
   7   7  -6   -6.99   16.58
   7   7  -6   34.66   15.58
  -7  -7   7   37.74   23.74
  -7  -7   7   29.13   14.89
   7   7  -7    8.85   18.57
   7   7  -7   32.27   15.35
  -7  -7   8 1095.95  309.72
  -7  -7   8 1224.32  305.00
   7   7  -8    2.39  307.35
   7   7  -8 1070.26  305.04
  -7  -7   9  -11.78   24.64
  -7  -7   9    3.00   11.13
   7   7  -9    3.08   24.65
   7   7  -9   -0.22   12.59
  -7  -7  10  400.08  135.24
  -7  -7  10  445.65  128.11
   7   7 -10   -7.31  133.34
   7   7 -10  518.26  128.91
  -7  -7  11   78.33   27.52
   7   7 -11   65.44   28.93
  -7  -7  12  198.28   72.15
   7   7 -12  233.18   73.51
  -7  -6   1   56.21   20.59
  -7  -6   1   -2.91   19.12
   7   6  -1   84.48   20.16
  -7  -6   2  370.04   35.52
  -7  -6   2   -5.37   93.17
   7   6  -2  342.72   95.24
   7   6  -2  441.46   95.54
  -7  -6   3   42.44   21.95
  -7  -6   3   47.66   18.97
   7   6  -3   43.27   18.67
   7   6  -3   49.77   21.70
  -7  -6   4   19.37   17.32
  -7  -6   4   22.03   12.98
   7   6  -4   26.43   13.31
   7   6  -4   22.44   13.76
  -7  -6   5  208.32   70.63
  -7  -6   5  216.86   68.33
   7   6  -5  172.02   69.49
   7   6  -5  209.27   68.34
  -7  -6   6   97.00   35.93
  -7  -6   6   85.37   30.28
   7   6  -6   74.86   31.38
   7   6  -6   81.93   30.30
  -7  -6   7 1281.05  324.44
  -7  -6   7 1238.96  320.22
   7   6  -7   -3.73  322.71
   7   6  -7 1212.74  320.33
  -7  -6   8   97.54   34.31
  -7  -6   8   95.64   28.50
   7   6  -8   -2.15   29.76
   7   6  -8  101.62   29.07
  -7  -6   9  793.80  262.36
  -7  -6   9  912.27  258.17
   7   6  -9   -1.06  261.07
   7   6  -9 1108.30  258.68
  -7  -6  10  766.26  201.32
   7   6 -10    1.99  204.61
   7   6 -10  767.79  201.69
  -7  -6  11  214.09   87.79
  -7  -6  11  241.47   75.73
   7   6 -11   21.34   82.30
   7   6 -11  322.78   76.61
  -7  -6  12    5.66    9.99
   7   6 -12    8.44   14.78
  -7  -6  13  197.58   43.70
   7   6 -13    6.82   43.03
  -7  -5   1    6.50    9.61
  -7  -5   1    2.37    8.81
   7   5  -1    1.85    6.10
   7   5  -1   -4.95   16.65
  -7  -5   2    3.25   10.69
   7   5  -2    0.05    8.24
   7   5  -2    4.77   15.30
  -7  -5   3   78.64   29.02
  -7  -5   3   83.12   26.97
   7   5  -3   62.93   27.03
   7   5  -3   75.09   28.21
  -7  -5   4   64.68   27.06
  -7  -5   4   63.45   22.84
   7   5  -4   42.55   23.41
   7   5  -4   79.75   23.63
  -7  -5   5   37.79   20.28
  -7  -5   5   47.84   16.94
   7   5  -5   36.27   17.52
   7   5  -5   46.01   17.28
  -7  -5   6  195.62   71.66
  -7  -5   6  256.38   70.24
   7   5  -6  174.69   71.39
   7   5  -6  196.94   70.19
  -7  -5   7  110.79   45.85
  -7  -5   7  146.38   43.61
   7   5  -7  110.29   45.14
   7   5  -7  132.61   43.92
  -7  -5   8  447.44  180.18
  -7  -5   8  515.04  177.58
   7   5  -8  538.02  180.65
   7   5  -8  619.16  177.92
  -7  -5   9   52.56   27.81
  -7  -5   9   90.59   25.21
   7   5  -9   53.33   30.13
   7   5  -9   64.41   25.80
  -7  -5  10  232.24  101.62
  -7  -5  10  333.21   98.41
   7   5 -10  196.49  101.74
   7   5 -10  344.96   98.75
  -7  -5  11   -0.91   23.84
  -7  -5  11   -0.29    8.39
   7   5 -11    1.27   10.03
  -7  -5  12   17.69   14.40
   7   5 -12   22.54   20.32
  -7  -5  13   28.19   14.45
   7   5 -13    1.36   18.03
  -7  -4   1    4.80    8.77
  -7  -4   1    3.06    6.18
   7   4  -1    3.88    7.47
   7   4  -1    3.03   13.95
  -7  -4   2  592.50  190.85
  -7  -4   2  551.19  188.62
   7   4  -2  587.24  190.63
   7   4  -2  547.63  188.67
  -7  -4   3   54.03   21.51
  -7  -4   3   58.19   20.20
   7   4  -3   49.28   20.38
   7   4  -3   59.22   20.75
  -7  -4   4  176.46   69.96
  -7  -4   4  206.38   68.92
   7   4  -4  262.49   70.06
   7   4  -4  174.51   69.00
  -7  -4   5 1836.84  577.40
  -7  -4   5 1705.56  571.99
   7   4  -5 1694.44  577.28
   7   4  -5 1710.35  572.05
  -7  -4   6  161.60   61.58
  -7  -4   6  167.99   60.15
   7   4  -6  210.33   61.54
   7   4  -6  179.48   60.57
  -7  -4   7  178.13   63.36
  -7  -4   7  195.19   61.68
   7   4  -7  180.78   62.93
   7   4  -7  178.16   61.83
  -7  -4   8   -1.50   12.76
  -7  -4   8   18.77    9.52
   7   4  -8    8.10   13.43
   7   4  -8   23.21   10.93
  -7  -4   9  798.12  320.18
  -7  -4   9  965.77  316.56
   7   4  -9  976.33  320.36
   7   4  -9 1040.83  316.74
  -7  -4  10   62.58   45.35
  -7  -4  10  159.33   43.57
   7   4 -10   72.69   45.88
   7   4 -10  164.21   43.75
  -7  -4  11   61.55   67.14
  -7  -4  11  258.26   64.89
   7   4 -11   54.10   66.71
   7   4 -11  283.49   66.21
  -7  -4  12   76.83   31.69
   7   4 -12  103.84   33.63
  -7  -4  13   56.85   17.19
   7   4 -13    2.87   19.67
  -7  -3   1  158.62   48.31
  -7  -3   1  119.32   47.24
   7   3  -1  128.29   47.80
   7   3  -1  163.18   47.93
  -7  -3   2   52.86   17.93
  -7  -3   2   41.56   17.25
   7   3  -2   44.92   17.51
   7   3  -2   57.70   17.75
  -7  -3   3   53.50   18.08
  -7  -3   3   41.25   17.38
   7   3  -3   46.12   17.68
   7   3  -3   58.56   17.80
  -7  -3   4 2581.15  826.96
  -7  -3   4 2349.26  819.55
   7   3  -4 2493.42  826.81
   7   3  -4 2574.71  827.37
  -7  -3   5    3.06    7.89
  -7  -3   5    4.56    6.29
   7   3  -5    2.40    6.21
   7   3  -5    1.48   11.90
   7   3  -5    1.44    6.92
  -7  -3   6 1021.73  344.56
   7   3  -6 1063.40  347.90
   7   3  -6  953.85  348.29
   7   3  -6 1108.48  344.67
  -7  -3   7  537.22  161.23
  -7  -3   7  357.91  161.64
  -7  -3   7  656.46  159.46
   7   3  -7  502.17  161.03
   7   3  -7  200.33  161.11
   7   3  -7  524.30  159.47
  -7  -3   8  920.81  303.45
  -7  -3   8  464.04  303.38
  -7  -3   8 1027.52  300.42
   7   3  -8  795.75  303.29
   7   3  -8  519.30  303.40
   7   3  -8 1532.40  300.93
  -7  -3   9   16.07   12.12
  -7  -3   9    1.73   11.25
  -7  -3   9   49.22   11.61
   7   3  -9   15.95   11.55
   7   3  -9   10.36   10.54
   7   3  -9   49.17   13.33
  -7  -3  10   46.11   18.71
   7   3 -10   48.37   21.10
  -7  -3  11   77.40   27.69
   7   3 -11   72.24   27.92
  -7  -3  12    1.09   10.86
   7   3 -12   -0.65   14.18
  -7  -3  13    7.03   18.17
  -7  -2   1    8.45    5.42
  -7  -2   1    5.10    6.38
   7   2  -1    7.73    4.91
   7   2  -1    6.12    6.39
  -7  -2   2  314.79   98.00
  -7  -2   2  326.80   96.83
  -7  -2   2  244.66   97.41
   7   2  -2  251.08   97.72
   7   2  -2  279.29   98.60
   7   2  -2  288.45   97.26
   7   2  -2  314.90   96.89
  -7  -2   3   13.33    7.57
  -7  -2   3   13.28    7.98
  -7  -2   3    7.67    9.14
   7   2  -3   30.64    8.39
   7   2  -3   11.55    8.22
   7   2  -3    1.58    8.81
   7   2  -3    9.06    7.51
  -7  -2   4   10.42    7.09
  -7  -2   4   11.08    5.61
  -7  -2   4   10.29   11.55
   7   2  -4    9.00    5.96
   7   2  -4   11.51   11.43
   7   2  -4    7.71    7.90
   7   2  -4    7.13    6.24
  -7  -2   5  903.41  318.68
  -7  -2   5 1056.48  315.66
  -7  -2   5  915.26  316.17
   7   2  -5 1017.78  318.57
   7   2  -5  954.61  318.90
   7   2  -5  773.99  315.73
   7   2  -5  989.37  315.71
  -7  -2   6  347.62  134.90
  -7  -2   6  378.42  135.49
  -7  -2   6  428.80  133.49
   7   2  -6  421.31  135.43
   7   2  -6  429.37  133.60
  -7  -2   7  486.34  228.64
  -7  -2   7  350.79  228.61
  -7  -2   7  853.71  226.74
   7   2  -7 1029.10  227.14
  -7  -2   8  243.02   86.18
   7   2  -8  282.33   86.72
  -7  -2   9   43.01   16.79
   7   2  -9   41.26   17.58
  -7  -2  10    4.61    9.46
   7   2 -10    1.85    8.60
  -7  -2  11  220.10   83.26
   7   2 -11  277.83   83.63
  -7  -2  12    0.70   11.98
   7   2 -12    2.98   11.59
  -7  -2  13   -4.68   15.32
   7   2 -13   -5.84   18.11
  -7  -1   1  513.09  191.20
  -7  -1   1  620.90  189.36
  -7  -1   1  555.20  189.85
   7   1  -1  568.83  191.10
   7   1  -1  650.66  191.81
   7   1  -1  592.70  189.56
   7   1  -1  538.73  189.27
  -7  -1   2  669.35  258.73
  -7  -1   2  825.29  256.33
  -7  -1   2  659.06  256.55
   7   1  -2  715.01  258.63
   7   1  -2  857.46  259.19
   7   1  -2 1009.67  256.69
   7   1  -2  750.95  256.33
  -7  -1   3  386.59  135.60
  -7  -1   3  323.86  134.00
  -7  -1   3  357.65  134.44
   7   1  -3  378.85  135.37
   7   1  -3  518.37  135.93
   7   1  -3  451.76  134.60
   7   1  -3  474.70  134.23
  -7  -1   4 1003.14  345.76
  -7  -1   4  985.68  342.54
  -7  -1   4 1062.45  342.88
   7   1  -4  975.64  345.62
   7   1  -4 1218.25  346.12
   7   1  -4 1073.13  342.85
   7   1  -4 1046.28  342.64
  -7  -1   5  832.38  299.28
  -7  -1   5  903.83  296.55
  -7  -1   5  936.21  296.91
   7   1  -5  715.86  299.14
   7   1  -5  697.93  299.53
   7   1  -5 1172.23  297.02
   7   1  -5 1097.86  296.76
  -7  -1   6  831.88  317.88
  -7  -1   6  748.50  318.16
  -7  -1   6 1010.31  315.17
  -7  -1   6  966.24  315.53
   7   1  -6  933.11  315.48
   7   1  -6 1200.17  315.35
  -7  -1   7    5.11    6.02
   7   1  -7    6.03    6.10
  -7  -1   8  348.54  130.83
   7   1  -8  441.52  130.90
   7   1  -9   19.03   12.14
  -7  -1  10   41.72   16.33
   7   1 -10   34.94   18.97
  -7  -1  11  234.20   82.16
   7   1 -11  255.50   82.12
  -7  -1  12    4.68   14.54
   7   1 -12    5.02   16.52
  -7  -1  13    9.17   19.03
   7   1 -13   -1.36   22.42
  -7   0   1 1683.97  582.58
  -7   0   1 2155.51  577.42
  -7   0   1 1909.71  577.60
   7   0  -1 1603.81  582.43
   7   0  -1 1367.90  577.32
   7   0  -1 1748.05  577.31
  -7   0   2  113.61   40.00
  -7   0   2  104.48   39.35
  -7   0   2  115.07   39.98
   7   0  -2  115.75   39.85
   7   0  -2  166.72   40.46
   7   0  -2  103.98   39.56
   7   0  -2  116.90   39.29
  -7   0   3 2984.50 1004.42
  -7   0   3 3301.41  995.74
  -7   0   3 2971.31  995.90
   7   0  -3 2966.09 1004.30
   7   0  -3 3477.04 1004.64
   7   0  -3 3254.99  995.85
   7   0  -3 2480.62  995.60
  -7   0   4  295.79   68.69
  -7   0   4  200.23   68.97
   7   0  -4  201.67   69.23
   7   0  -4  199.82   69.54
   7   0  -4  163.88   68.66
   7   0  -4  164.36   68.38
  -7   0   5 1851.31  437.97
  -7   0   5 1020.84  437.87
   7   0  -5 1093.03  437.81
   7   0  -5 1156.72  437.70
  -7   0   6  173.41   58.09
  -7   0   6  167.47   58.47
   7   0  -6  165.08   58.34
   7   0  -6  184.76   58.03
  -7   0   7  255.39   63.69
  -7   0   7   74.92   63.91
   7   0  -7  131.03   63.61
   7   0  -7  240.31   63.66
  -7   0   8   60.07   22.48
   7   0  -8   66.87   22.40
  -7   0   9  119.15   36.32
   7   0  -9   88.03   36.41
  -7   0  10   83.74   27.69
   7   0 -10   71.11   28.71
  -7   0  11    3.57   13.07
   7   0 -11    3.69   16.52
  -7   0  12  451.07   71.25
   7   0 -12    7.45   67.99
   7   0 -13    1.01   12.98
  -7   1   1   61.58   23.69
  -7   1   1   70.56   23.14
  -7   1   1   72.43   23.41
   7  -1  -1   60.70   23.36
   7  -1  -1   85.42   23.79
   7  -1  -1   59.34   23.33
   7  -1  -1   67.93   23.11
  -7   1   2 2802.88 1069.17
  -7   1   2 3238.50 1059.99
  -7   1   2 2625.81 1059.97
   7  -1  -2 2904.33 1069.10
   7  -1  -2 3523.14 1060.05
   7  -1  -2 4116.06 1060.13
  -7   1   3  290.51  106.20
  -7   1   3  354.14  105.23
  -7   1   3  308.35  105.25
   7  -1  -3  273.60  106.11
   7  -1  -3  367.58  106.47
   7  -1  -3  324.14  105.21
   7  -1  -3  331.41  105.23
  -7   1   4  470.20   97.56
  -7   1   4  113.52   97.17
   7  -1  -4  138.77   97.19
   7  -1  -4  437.21   97.59
  -7   1   5  569.94  190.71
  -7   1   5  454.53  190.73
   7  -1  -5  479.00  190.67
   7  -1  -5  791.25  190.93
  -7   1   6   67.51   22.02
   7  -1  -6   49.61   21.88
   7  -1  -6   73.06   22.10
  -7   1   7  266.18   69.36
  -7   1   7  124.77   69.27
   7  -1  -7  135.34   69.19
   7  -1  -7  266.71   69.34
  -7   1   8  142.09   47.54
   7  -1  -8  140.81   47.66
  -7   1   9  528.35  165.08
   7  -1  -9  470.76  165.10
  -7   1  10   10.65   15.41
   7  -1 -10   10.07   13.60
  -7   1  11    0.66   12.21
   7  -1 -11    0.32   11.87
  -7   1  12 1522.07  242.03
   7  -1 -12    3.75  239.52
  -7   2   1 2190.43  705.68
  -7   2   1 2209.47  699.55
  -7   2   1 1967.32  699.58
   7  -2  -1 2152.52  705.77
   7  -2  -1 2006.43  699.54
   7  -2  -1 2155.67  699.51
  -7   2   2 1093.57  281.36
  -7   2   2  991.57  278.51
  -7   2   2  784.29  278.49
   7  -2  -2  908.38  281.10
   7  -2  -2  609.03  281.05
   7  -2  -2  800.49  278.45
   7  -2  -2  769.64  278.36
  -7   2   3  331.06  115.27
  -7   2   3  374.34  114.09
  -7   2   3  292.69  114.07
   7  -2  -3  363.05  115.26
   7  -2  -3  320.00  114.04
   7  -2  -3  373.92  114.05
   7  -2  -4   28.29    1.66
  -7   2   4   28.08   10.08
  -7   2   4   22.45   10.37
   7  -2  -4   24.28   10.19
  -7   2   5   65.75   21.29
  -7   2   5   48.68   21.93
   7  -2  -5   57.04   21.63
   7  -2  -5   70.49   21.21
  -7   2   6  176.92   45.97
  -7   2   6  111.91   46.46
   7  -2  -6   82.87   45.90
   7  -2  -6  164.23   45.91
  -7   2   7  208.06   65.94
  -7   2   7  205.00   66.72
   7  -2  -7  154.41   66.08
   7  -2  -7  220.68   65.90
  -7   2   8   60.94   22.16
   7  -2  -8   64.36   21.84
  -7   2   9   92.78   36.11
   7  -2  -9  112.83   35.92
  -7   2  10   78.48   23.02
   7  -2 -10   41.16   21.60
  -7   2  12   30.47   14.70
   7  -2 -12    1.01   11.07
  -7   3   1 1042.25  341.29
  -7   3   1  928.64  341.43
  -7   3   1 1094.69  338.25
  -7   3   1 1095.54  338.24
   7  -3  -1  859.53  341.28
   7  -3  -1 1098.16  341.40
   7  -3  -1 1075.61  338.21
   7  -3  -1  985.02  338.12
  -7   3   2  698.95  264.71
  -7   3   2  878.48  264.99
  -7   3   2 1045.89  262.52
  -7   3   2  645.88  262.30
   7  -3  -2  603.79  264.78
   7  -3  -2  781.88  262.34
   7  -3  -2  886.97  262.31
  -7   3   3   18.76    6.54
  -7   3   3    9.14    6.59
   7  -3  -3   14.63    6.63
   7  -3  -3   13.09    5.98
  -7   3   4 1064.66  261.68
  -7   3   4  702.17  261.49
   7  -3  -4  699.21  261.44
   7  -3  -4  745.50  261.39
  -7   3   5   21.44    6.88
  -7   3   5    4.80    6.68
   7  -3  -5    3.84    5.83
   7  -3  -5   18.35    6.15
  -7   3   6 1120.15  319.07
   7  -3  -6  738.61  318.82
   7  -3  -6 1039.98  318.91
  -7   3   7   23.85   12.44
   7  -3  -7   41.46   12.64
  -7   3   8  141.05   47.26
   7  -3  -8  140.48   47.19
  -7   3   9 1069.92  272.87
   7  -3  -9  647.33  272.11
  -7   3  10  282.48   92.82
   7  -3 -10  273.79   92.74
  -7   3  11    7.88    8.75
   7  -3 -11   -0.40    9.09
  -7   4   1  137.86   58.96
  -7   4   1  260.22   59.82
  -7   4   1  148.49   58.23
  -7   4   1  235.71   58.65
   7  -4  -1  124.00   59.02
   7  -4  -1  200.60   58.45
   7  -4  -1  159.87   58.14
  -7   4   2   53.91   20.48
  -7   4   2   51.96   20.25
  -7   4   2   54.40   20.56
   7  -4  -2   65.67   21.38
   7  -4  -2   46.60   20.35
   7  -4  -2   81.62   20.30
  -7   4   3  496.51  167.41
  -7   4   3  474.34  167.44
   7  -4  -3  459.75  167.40
   7  -4  -3  581.07  167.41
  -7   4   4    2.13    4.12
  -7   4   4   -1.24    4.57
   7  -4  -4    1.56    5.76
   7  -4  -4    1.36    3.78
  -7   4   5  226.14   44.18
  -7   4   5   52.21   43.59
   7  -4  -5   75.00   43.80
   7  -4  -5  158.98   43.74
  -7   4   6  258.90   86.90
   7  -4  -6  263.68   86.75
  -7   4   7  210.64   80.02
   7  -4  -7  262.33   79.89
  -7   4   8   43.87   11.67
   7  -4  -8   11.08   10.46
  -7   4   9 1091.93  369.12
   7  -4  -9 1136.67  368.98
  -7   4  10    8.42   10.19
  -7   4  11  301.55  101.21
  -7   5   1  303.79  104.08
  -7   5   1  336.78  103.13
  -7   5   1  246.15  103.08
   7  -5  -1  375.19  104.77
   7  -5  -1  317.10  104.17
   7  -5  -1  287.60  103.04
   7  -5  -1  339.24  103.04
  -7   5   2   63.78   27.55
  -7   5   2   99.75   27.55
  -7   5   2   90.61   27.77
   7  -5  -2   92.91   28.11
   7  -5  -2   73.17   27.81
   7  -5  -2   72.29   27.38
   7  -5  -2   85.71   27.24
  -7   5   3   33.09   11.23
  -7   5   3   24.55   11.73
   7  -5  -3   25.27   11.17
   7  -5  -3   37.52   10.79
  -7   5   4  350.63   95.71
  -7   5   4  236.14   95.69
   7  -5  -4  272.67   95.68
   7  -5  -4  290.78   95.51
  -7   5   5  245.38   84.68
   7  -5  -5  261.99   84.57
  -7   5   6  337.34  111.63
   7  -5  -6  336.62  111.50
  -7   5   7   79.90   25.88
   7  -5  -7   69.71   25.39
  -7   5   8  670.23  222.70
   7  -5  -8  675.39  222.51
  -7   5   9   46.12   14.31
   7  -5  -9    2.22   10.20
  -7   5  10 1003.11  164.92
   7  -5 -10    1.74  162.56
  -7   6   1  130.25   43.92
  -7   6   1  150.78   43.35
  -7   6   1  107.73   43.29
   7  -6  -1  182.90   44.97
   7  -6  -1  126.18   44.13
   7  -6  -1   88.39   43.26
   7  -6  -1  147.18   43.20
  -7   6   2  104.36   46.51
  -7   6   2  196.62   46.23
  -7   6   2  102.99   45.97
   7  -6  -2  128.40   46.77
   7  -6  -2   90.62   45.95
   7  -6  -2  187.20   46.02
  -7   6   3 1101.47  262.84
  -7   6   3  460.82  262.54
   7  -6  -3  495.48  262.52
   7  -6  -3 1013.74  262.64
  -7   6   4  123.55   42.23
   7  -6  -4  127.62   42.08
  -7   6   5  227.30   75.72
  -7   6   6  161.39   53.22
   7  -6  -6  156.37   53.01
   7  -6  -7   59.39   21.42
  -7   6   8    7.47    9.65
   7  -6  -8    0.21    7.79
  -7   6   9  571.96   90.72
   7  -6  -9    1.50   87.80
  -7   7   1   91.52   40.28
  -7   7   1  172.78   40.08
  -7   7   1   97.41   40.03
   7  -7  -1  184.21   41.66
   7  -7  -1   89.34   40.56
   7  -7  -1   89.73   39.84
   7  -7  -1  126.45   39.55
  -7   7   2   20.37   19.05
  -7   7   2   89.31   19.37
   7  -7  -2   78.99   21.34
   7  -7  -2   26.72   19.70
   7  -7  -2   63.58   18.77
  -7   7   3   14.00   11.57
  -7   7   3   36.48   11.82
   7  -7  -3   19.03   12.26
   7  -7  -3   43.88   11.69
  -7   7   4   78.31   29.74
   7  -7  -4   94.57   29.75
  -7   7   5   95.32   37.74
   7  -7  -5  125.18   37.83
  -7   7   6 1193.44  373.62
   7  -7  -6 1075.79  373.50
  -7   7   7   79.57   26.45
   7  -7  -7   63.72   25.45
  -7   7   8  629.60   96.20
   7  -7  -8   -0.26   93.21
  -7   8   1    7.82   15.52
  -7   8   1   60.85   16.54
   7  -8  -1   29.19   17.68
   7  -8  -1   70.77   16.00
  -7   8   2  135.50  109.00
  -7   8   2  320.27  108.18
   7  -8  -2  464.30  110.71
   7  -8  -2  466.61  108.22
  -7   8   3   31.84   16.63
  -7   8   3   31.93   15.27
   7  -8  -3   18.78   17.91
   7  -8  -3   58.64   14.73
  -7   8   4  206.65  110.71
  -7   8   4  386.70  109.67
   7  -8  -4  244.66  111.09
   7  -8  -4  410.89  109.38
  -7   8   5 1344.25  425.99
   7  -8  -5 1246.28  425.73
  -7   8   6   79.15   27.64
   7  -8  -6   62.00   25.25
  -7   8   7 1756.07  238.79
   7  -8  -7    4.53  235.43
  -7   8   8   98.05   30.32
   7  -8  -8    1.94   16.47
  -7   9   1  212.33   76.11
   7  -9  -1  232.99   78.98
   7  -9  -1  235.74   75.74
  -7   9   2    2.18   10.47
   7  -9  -2    1.31   15.53
   7  -9  -2    3.11    7.34
  -7   9   3    7.56   14.57
  -7   9   3   23.75   13.53
   7  -9  -3    5.95   17.33
   7  -9  -3   28.34   11.55
  -7   9   4   66.82   79.36
  -7   9   4  367.38   79.99
   7  -9  -4  262.05   78.55
  -7   9   5    6.92   14.86
  -7   9   5   54.86   18.40
   7  -9  -5   46.54   15.99
  -7   9   6  366.86   50.00
   7  -9  -6    1.25   41.93
   7  -9  -7   -4.15   11.39
  -7  10   1   16.13   13.27
   7 -10  -1    0.17   23.54
   7 -10  -1    8.74    9.36
  -7  10   2   16.08   15.51
   7 -10  -2   15.46   10.65
  -7  10   3 1882.49  522.31
   7 -10  -3 1071.16  527.53
   7 -10  -3 1610.67  521.54
  -7  10   4    3.49   30.64
  -7  10   4  103.71   31.35
   7 -10  -4  103.42   27.20
  -7  10   5  228.13   34.84
   7 -10  -5   -0.54   24.19
  -7  11   1  176.09   49.93
   7 -11  -1   31.02   56.70
   7 -11  -1  156.29   48.12
  -7  11   2  340.50  418.93
  -7  11   2 2402.48  415.43
   7 -11  -2    7.53  417.86
   7 -11  -2 1538.67  413.61
  -7  11   3   18.36   26.67
   7 -11  -3    7.08   10.38
  -7  11   4  900.07  106.82
   7 -11  -4    5.04   96.30
  -7  12   1  336.12  102.37
   7 -12  -1    9.36  104.11
   7 -12  -1  391.83  100.80
  -7  12   2    7.30   24.86
   7 -12  -2    3.69   16.97
  -6  -9   4   37.16   19.98
   6   9  -4    0.54   15.88
  -6  -9   5  312.66   65.47
  -6  -9   5   -0.29   58.85
   6   9  -5    5.49   60.83
   6   9  -5  447.57   68.39
  -6  -9   6  338.38  103.21
  -6  -9   6  445.87  100.03
   6   9  -6    4.46   99.69
   6   9  -6  337.27  100.08
  -6  -9   7    5.95   26.50
  -6  -9   7    3.27   15.75
   6   9  -7   -3.14   18.56
   6   9  -7   21.58   17.00
  -6  -9   8  209.29   56.03
  -6  -9   8  171.57   48.50
   6   9  -8   15.95   54.41
   6   9  -8  113.73   48.52
  -6  -9   9  226.15   60.34
   6   9  -9   -6.83   66.97
   6   9  -9  223.55   60.52
  -6  -9  10  246.87   77.03
   6   9 -10  198.80   78.08
  -6  -9  11   96.40   38.04
   6   9 -11  122.87   40.79
   6   8  -1    4.91    6.29
  -6  -8   1    2.36   16.17
  -6  -8   2  629.91  146.43
  -6  -8   2   -1.91  142.68
   6   8  -2  501.28  145.87
   6   8  -2  661.76  147.47
  -6  -8   3  495.22  116.39
  -6  -8   3   -3.97  112.51
   6   8  -3  357.35  115.81
   6   8  -3  572.68  118.65
  -6  -8   4  596.21  149.41
  -6  -8   4   -6.23  145.46
   6   8  -4  569.99  149.24
   6   8  -4  680.39  149.40
  -6  -8   5   -4.90   19.92
  -6  -8   5    4.67   13.72
   6   8  -5   -1.11   12.56
   6   8  -5   -3.11   14.27
  -6  -8   6  137.45   41.45
  -6  -8   6  121.03   35.98
   6   8  -6   -1.14   35.93
   6   8  -6  119.13   36.34
  -6  -8   7  162.34   46.32
  -6  -8   7  153.45   41.31
   6   8  -7    1.17   45.07
   6   8  -7  116.07   41.27
  -6  -8   8  129.07   35.59
   6   8  -8    5.35   40.34
   6   8  -8  121.94   35.95
  -6  -8   9    1.64   27.67
  -6  -8   9    6.76   12.92
   6   8  -9    4.29   13.95
  -6  -8  10    3.06   31.53
  -6  -8  10    5.00   12.50
   6   8 -10    3.15   13.88
  -6  -8  11  140.34   83.94
  -6  -8  11  215.14   69.48
   6   8 -11  220.97   70.14
  -6  -8  12  119.09   42.20
   6   8 -12  122.05   42.51
  -6  -7   1  528.16  104.85
  -6  -7   1    7.16  101.73
   6   7  -1  348.83  103.95
   6   7  -1  348.80  104.85
  -6  -7   2   80.09   27.98
  -6  -7   2   -0.59   24.52
   6   7  -2   71.95   26.37
   6   7  -2  140.31   32.00
  -6  -7   3 1043.92  378.35
  -6  -7   3 1006.73  374.49
   6   7  -3 1126.18  378.35
   6   7  -3 1411.77  375.51
  -6  -7   4   35.07   21.48
  -6  -7   4   54.64   19.83
   6   7  -4   41.25   18.83
   6   7  -4   46.25   19.94
  -6  -7   5   15.04   18.56
   6   7  -5   12.98   12.60
   6   7  -5   19.86   13.49
  -6  -7   6  327.70   99.35
  -6  -7   6  298.16   95.94
   6   7  -6  245.03   98.00
   6   7  -6  272.39   95.98
  -6  -7   7  389.70  127.08
  -6  -7   7  389.42  124.08
   6   7  -7  363.54  126.92
   6   7  -7  343.33  124.37
  -6  -7   8   40.78   25.78
  -6  -7   8   40.06   18.05
   6   7  -8   38.11   23.68
   6   7  -8   42.61   18.34
  -6  -7   9   38.28   26.96
  -6  -7   9   36.40   16.02
   6   7  -9   25.58   16.49
  -6  -7  10  769.51  257.53
  -6  -7  10  821.22  252.47
   6   7 -10  678.35  252.55
  -6  -7  11  642.85  178.72
  -6  -7  11  495.85  171.11
   6   7 -11  474.82  171.36
  -6  -7  12  173.54   58.65
   6   7 -12  164.83   59.04
  -6  -7  13  976.59  186.44
   6   7 -13    3.37  184.48
  -6  -6   1  261.35   68.00
  -6  -6   1   -1.81   65.80
   6   6  -1  247.74   67.46
   6   6  -1  293.61   69.38
  -6  -6   2  896.79  363.65
  -6  -6   2 1053.63  360.19
   6   6  -2 1305.24  363.81
   6   6  -2 1088.99  360.61
  -6  -6   3  151.32   54.98
  -6  -6   3  154.03   53.62
   6   6  -3  158.93   54.64
   6   6  -3  167.32   53.84
  -6  -6   4  474.59  144.52
  -6  -6   4  435.48  142.43
   6   6  -4  395.94  144.11
   6   6  -4  411.97  142.50
  -6  -6   5  190.70   64.88
  -6  -6   5  188.27   63.05
   6   6  -5  181.07   64.48
   6   6  -5  186.52   63.12
  -6  -6   6   67.00   25.79
  -6  -6   6   60.42   22.65
   6   6  -6   62.68   25.78
   6   6  -6   51.79   22.61
  -6  -6   7  285.79  103.84
  -6  -6   7  299.29  101.69
   6   6  -7  360.47  103.73
   6   6  -7  275.40  101.75
  -6  -6   8   40.28   19.81
  -6  -6   8   36.55   15.99
   6   6  -8   35.69   16.37
  -6  -6   9  273.30   80.05
  -6  -6   9  229.45   77.02
   6   6  -9  202.09   77.15
  -6  -6  10  549.58  154.77
  -6  -6  10  456.66  150.58
   6   6 -10  394.45  150.47
  -6  -6  11   -2.56   30.01
  -6  -6  11    3.03    9.73
   6   6 -11    3.00   12.07
  -6  -6  12 1378.30  460.23
   6   6 -12 1411.83  460.51
  -6  -6  13   82.95   22.03
   6   6 -13    3.30   22.22
  -6  -6  14  296.79   64.11
   6   6 -14    0.94   63.47
  -6  -5   1 1022.77  137.41
  -6  -5   1  885.82  334.39
   6   5  -1 1089.46  337.65
   6   5  -1 1047.33  334.72
  -6  -5   2   48.05   20.65
  -6  -5   2   54.22   19.43
   6   5  -2   48.58   19.96
   6   5  -2   53.09   19.40
  -6  -5   3  180.39   60.18
  -6  -5   3  168.02   58.82
   6   5  -3  175.06   59.80
   6   5  -3  176.25   59.17
  -6  -5   4   98.68   34.93
  -6  -5   4  119.21   34.95
   6   5  -4   85.45   34.83
   6   5  -4   91.72   34.46
  -6  -5   5   30.43   14.05
  -6  -5   5   39.37   14.25
   6   5  -5   32.46   13.91
   6   5  -5   28.85   14.10
  -6  -5   6   13.01   10.61
  -6  -5   6   18.94    9.64
   6   5  -6   11.64   12.96
   6   5  -6   12.01    9.82
  -6  -5   7  171.70   57.87
   6   5  -7  155.60   59.35
   6   5  -7  190.58   58.31
  -6  -5   8  863.13  234.14
   6   5  -8  511.06  233.93
  -6  -5   9  876.34  293.03
  -6  -5   9  963.00  289.16
   6   5  -9  764.52  289.12
  -6  -5  10  160.59   58.24
   6   5 -10  187.86   58.73
  -6  -5  11   73.87   28.06
   6   5 -11   84.90   29.01
  -6  -5  12   41.20   36.90
  -6  -5  12   70.72   26.04
   6   5 -12   89.39   28.28
  -6  -5  13  312.07   65.45
   6   5 -13    4.22   64.76
  -6  -5  14   44.57   19.59
   6   5 -14    0.99   22.11
  -6  -4   1  974.17  335.62
  -6  -4   1 1070.01  332.38
   6   4  -1  976.44  335.42
   6   4  -1 1004.03  332.35
  -6  -4   2    6.25    6.01
  -6  -4   2    2.52    7.51
   6   4  -2    4.23    4.82
   6   4  -2    2.62    6.66
  -6  -4   3   46.94   19.02
  -6  -4   3   56.84   18.62
   6   4  -3   50.04   18.70
   6   4  -3   46.69   20.83
   6   4  -3   56.78   18.84
  -6  -4   4  584.21  173.30
  -6  -4   4  608.85  171.32
   6   4  -4  481.16  173.08
   6   4  -4  438.39  173.60
   6   4  -4  453.58  171.30
  -6  -4   5  123.70   45.44
  -6  -4   5  169.08   44.50
   6   4  -5  139.15   45.47
   6   4  -5   98.17   46.19
   6   4  -5  121.81   44.70
  -6  -4   6   25.17   12.40
  -6  -4   6   33.17   11.15
   6   4  -6   24.63   13.52
   6   4  -6   21.75   14.91
   6   4  -6   27.99   11.64
  -6  -4   7  143.14   43.17
  -6  -4   7  135.24   41.97
   6   4  -7   88.40   43.93
   6   4  -7  125.19   41.98
  -6  -4   8 2055.85  535.11
  -6  -4   8 1058.00  534.51
  -6  -4   8 1770.59  529.73
   6   4  -8 1641.67  529.77
  -6  -4   9  236.14   43.44
  -6  -4   9   54.83   41.13
  -6  -4   9  187.59   40.94
   6   4  -9   45.05   41.15
   6   4  -9  176.68   41.23
  -6  -4  10  735.82  235.71
  -6  -4  10  675.47  232.20
   6   4 -10  715.38  232.36
  -6  -4  11  181.26   64.81
   6   4 -11  207.50   65.01
  -6  -4  12   89.17   35.01
   6   4 -12  109.21   36.15
  -6  -4  13   91.34   33.13
  -6  -4  14    1.99   16.00
  -6  -3   1  119.65   37.02
  -6  -3   1   95.95   38.12
   6   3  -1  114.66   36.76
   6   3  -1  113.85   37.99
   6   3  -1   82.69   36.82
   6   3  -1  107.03   36.45
  -6  -3   2  160.06   51.04
  -6  -3   2  164.09   50.27
  -6  -3   2  130.90   51.09
   6   3  -2  146.33   50.78
   6   3  -2  149.30   51.44
   6   3  -2  120.15   50.62
   6   3  -2  162.14   50.21
  -6  -3   3   79.73   23.96
  -6  -3   3   65.71   23.40
  -6  -3   3   60.30   23.98
   6   3  -3   70.54   23.62
   6   3  -3   63.31   24.24
   6   3  -3   66.82   23.58
   6   3  -3   64.23   23.36
  -6  -3   4    6.15    5.09
  -6  -3   4    5.73    5.75
  -6  -3   4    5.28    8.28
   6   3  -4    5.50    4.24
   6   3  -4    0.38    8.57
   6   3  -4    4.39    6.69
   6   3  -4    4.85    5.53
  -6  -3   5   14.45    6.45
  -6  -3   5    8.03    6.78
  -6  -3   5    7.57    9.11
   6   3  -5   14.31    6.72
   6   3  -5   10.42    8.13
   6   3  -5   11.68    7.98
   6   3  -5   13.05    6.75
  -6  -3   6   70.57   19.61
  -6  -3   6   45.53   20.12
   6   3  -6   73.79   20.49
   6   3  -6   52.62   21.85
   6   3  -6   28.98   19.88
   6   3  -6   50.28   19.34
  -6  -3   7 1129.63  333.13
  -6  -3   7 1026.06  333.25
  -6  -3   7 1070.13  329.80
  -6  -3   7  899.96  330.12
   6   3  -7 1167.26  332.99
   6   3  -7  700.43  332.95
   6   3  -7  895.94  329.91
   6   3  -7 1013.24  329.79
  -6  -3   8  150.18   53.80
  -6  -3   8  185.16   52.64
   6   3  -8   97.53   53.76
   6   3  -8  176.32   52.60
  -6  -3   9 1476.45  536.42
  -6  -3   9 1767.24  531.28
   6   3  -9 1506.20  531.27
  -6  -3  10   32.14   27.42
  -6  -3  10  109.46   27.35
   6   3 -10   84.96   28.14
  -6  -3  11 1299.12  455.13
   6   3 -11 1493.05  455.61
  -6  -3  12  122.46   49.05
   6   3 -12  166.43   50.28
  -6  -3  13   32.21   17.93
  -6  -3  14   56.76   25.50
  -6  -2   1  432.65  145.19
  -6  -2   1  494.52  143.60
  -6  -2   1  502.28  144.11
   6   2  -1  417.63  145.03
   6   2  -1  489.97  145.54
   6   2  -1  395.99  143.74
   6   2  -1  350.54  143.48
  -6  -2   2  544.49  185.54
  -6  -2   2  549.18  183.58
  -6  -2   2  519.49  183.91
   6   2  -2  549.53  185.38
   6   2  -2  647.06  185.78
   6   2  -2  523.37  183.73
   6   2  -2  558.61  183.59
  -6  -2   3  153.31   47.87
  -6  -2   3  162.46   48.55
   6   2  -3  148.82   48.44
   6   2  -3  114.96   48.75
   6   2  -3  140.28   48.11
   6   2  -3  139.43   47.77
  -6  -2   4   15.97    6.21
  -6  -2   4   11.23    6.85
  -6  -2   4   10.32    8.89
   6   2  -4   14.88    6.00
   6   2  -4    9.54    8.08
   6   2  -4   15.32    6.39
  -6  -2   5 2048.64  673.37
  -6  -2   5 1984.85  667.36
  -6  -2   5 2196.93  667.65
   6   2  -5 1902.92  673.24
   6   2  -5 1866.53  673.47
   6   2  -5 2313.55  667.55
   6   2  -5 1928.04  667.37
  -6  -2   6 1202.61  385.57
  -6  -2   6 1040.56  381.91
  -6  -2   6 1311.15  382.34
   6   2  -6 1133.42  385.47
   6   2  -6 1031.28  385.63
   6   2  -6 1342.36  382.16
   6   2  -6 1111.64  381.97
  -6  -2   7    8.69    6.26
  -6  -2   7   10.11    5.10
  -6  -2   7   10.57   10.03
   6   2  -7    8.56    6.47
   6   2  -7    6.35    7.18
   6   2  -7    6.17    5.67
  -6  -2   8   84.40   21.33
  -6  -2   8   71.74   23.89
   6   2  -8   64.84   21.74
   6   2  -8   24.88   21.03
   6   2  -8   56.43   21.82
   6   2  -8   80.75   21.51
   6   2  -9   28.39   11.89
  -6  -2  10 1609.64  483.26
   6   2 -10 1289.83  483.21
  -6  -2  11    5.12    9.57
   6   2 -11    5.74    9.26
  -6  -2  12   60.20   23.53
   6   2 -12   61.53   24.52
  -6  -2  13  294.74   54.59
   6   2 -13    2.96   50.78
  -6  -1   1   25.25   10.65
  -6  -1   1   25.25   10.57
   6   1  -1   25.67   10.31
   6   1  -1   33.33   11.23
   6   1  -1   35.21   11.42
   6   1  -1   27.15   10.50
  -6  -1   2  536.35  197.93
  -6  -1   2  596.96  198.15
   6   1  -2  555.95  199.87
   6   1  -2  674.20  200.18
   6   1  -2  603.51  198.12
   6   1  -2  666.08  198.06
  -6  -1   3   50.76   22.12
  -6  -1   3   70.37   21.74
  -6  -1   3   62.97   22.45
   6   1  -3   60.78   22.00
   6   1  -3   75.23   22.61
   6   1  -3   65.45   22.20
   6   1  -3   62.74   21.85
  -6  -1   4  203.07   67.40
  -6  -1   4  237.98   66.61
  -6  -1   4  201.55   66.86
   6   1  -4  178.09   67.24
   6   1  -4  189.37   66.68
   6   1  -4  190.88   66.60
  -6  -1   5 1365.95  468.49
  -6  -1   5 1263.63  464.29
  -6  -1   5 1484.55  464.53
   6   1  -5 1308.21  468.40
   6   1  -5 1688.67  468.78
   6   1  -5 1308.28  464.39
   6   1  -5 1584.52  464.43
  -6  -1   6    5.31    4.08
  -6  -1   6    4.52    4.47
  -6  -1   6    8.34    4.46
  -6  -1   6    6.99    7.06
   6   1  -6    5.38    3.76
   6   1  -6    4.90    3.94
   6   1  -6    2.19    6.17
   6   1  -6    7.39    5.45
  -6  -1   7  852.14  292.17
  -6  -1   7  904.34  292.43
   6   1  -7  905.45  292.35
   6   1  -7  892.29  292.25
  -6  -1   8   20.29    8.63
  -6  -1   8   24.13   12.21
   6   1  -8   18.24   12.64
   6   1  -8   14.83    8.51
  -6  -1   9  240.74   67.00
   6   1  -9  163.36   66.65
  -6  -1  10   17.75    8.62
   6   1 -10   16.32    8.75
   6   1 -11   43.60   19.04
  -6  -1  12  117.33   42.95
   6   1 -12  124.21   43.48
  -6  -1  13   25.65   19.31
   6   1 -13    4.51   25.03
  -6   0   1   24.69    9.14
  -6   0   1   20.99    9.05
  -6   0   1   28.00   10.16
   6   0  -1   24.29    9.03
   6   0  -1   21.61    9.17
   6   0  -1   25.59    9.56
   6   0  -1   24.28    8.82
  -6   0   2  563.01  224.53
  -6   0   2  648.83  222.43
  -6   0   2  779.56  222.61
   6   0  -2  605.06  224.47
   6   0  -2  800.06  222.57
   6   0  -2  705.30  222.44
  -6   0   3   66.85   23.64
  -6   0   3   94.51   23.52
  -6   0   3   56.66   23.62
   6   0  -3   63.49   23.52
   6   0  -3   68.72   23.63
   6   0  -3   60.13   23.36
  -6   0   4  376.17  149.72
  -6   0   4  557.49  148.41
  -6   0   4  444.70  148.46
   6   0  -4  374.35  149.63
   6   0  -4  496.38  148.45
   6   0  -4  442.49  148.33
  -6   0   5  560.21  222.29
  -6   0   5  727.47  222.52
   6   0  -5  698.14  222.45
   6   0  -5  730.64  222.38
  -6   0   6 4652.54 1369.53
  -6   0   6 3988.26 1369.60
   6   0  -6 4387.55 1369.58
   6   0  -6 3636.81 1369.40
  -6   0   7   75.27   27.81
  -6   0   7   96.93   29.09
   6   0  -7   89.34   28.28
   6   0  -7   74.87   27.76
  -6   0   8 1372.58  406.02
  -6   0   8 1011.22  406.13
   6   0  -8  977.49  405.95
   6   0  -8 1431.69  406.10
  -6   0   9  943.64  303.97
   6   0  -9  895.32  303.97
  -6   0  10   29.38   12.61
   6   0 -10   22.85   11.55
   6   0 -11  192.07   65.71
  -6   0  12   87.37   20.40
   6   0 -12    1.65   18.19
   6   0 -13   -1.97   11.08
  -6   1   1  156.68   56.53
  -6   1   1  169.44   55.74
  -6   1   1  145.19   55.75
   6  -1  -1  172.54   56.39
   6  -1  -1  137.87   56.43
   6  -1  -1  220.15   55.87
   6  -1  -1  165.67   55.76
  -6   1   2 2230.88  674.31
  -6   1   2 2244.10  674.37
   6  -1  -2 1792.82  680.15
   6  -1  -2 1985.56  674.31
   6  -1  -2 2000.20  674.28
  -6   1   3  299.35  125.61
  -6   1   3  408.86  124.50
  -6   1   3  390.74  124.51
   6  -1  -3  343.51  124.44
   6  -1  -3  432.15  124.51
  -6   1   4  133.78   43.43
  -6   1   4  109.94   43.46
   6  -1  -4  141.77   43.51
   6  -1  -4  132.74   43.45
  -6   1   5 1144.55  381.36
  -6   1   5 1133.79  381.41
   6  -1  -5 1045.73  381.34
   6  -1  -5 1302.99  381.44
  -6   1   6  525.02  143.57
  -6   1   6  412.97  143.55
   6  -1  -6  353.73  143.42
   6  -1  -6  444.21  143.52
  -6   1   7 1821.95  510.08
  -6   1   7 1052.62  509.93
   6  -1  -7 1579.71  510.05
   6  -1  -7 1621.70  510.00
  -6   1   8  220.00   72.32
  -6   1   8  194.11   73.34
   6  -1  -8  235.31   72.83
   6  -1  -8  215.46   72.26
  -6   1   9   18.08    7.96
   6  -1  -9   16.87    8.11
  -6   1  10   91.22   33.16
   6  -1 -11   56.59   22.66
   6  -1 -12    1.17    7.90
  -6   2   1   97.32   31.34
  -6   2   1  104.21   31.00
  -6   2   1   85.80   30.91
   6  -2  -1   77.71   31.19
   6  -2  -1  115.94   31.48
   6  -2  -1   86.43   30.83
   6  -2  -1   86.50   30.88
  -6   2   2  991.67  344.11
  -6   2   2 1036.35  340.89
  -6   2   2 1037.72  340.91
   6  -2  -2  999.77  344.02
   6  -2  -2 1036.21  340.89
   6  -2  -2 1070.33  340.87
  -6   2   3  144.60   45.25
  -6   2   3  142.75   45.29
   6  -2  -3  126.65   45.19
   6  -2  -3  131.57   45.19
  -6   2   4 1975.23  636.81
  -6   2   4 1842.10  636.79
   6  -2  -4 1867.19  636.76
   6  -2  -4 2029.40  636.78
  -6   2   5  174.34   45.75
  -6   2   5  129.97   45.71
   6  -2  -5  138.84   45.64
   6  -2  -5  107.90   45.55
  -6   2   6   19.12   14.09
  -6   2   6    8.51   14.46
   6  -2  -6   10.99   14.41
   6  -2  -6  101.16   15.37
  -6   2   7   15.30    7.21
  -6   2   7   14.19    8.32
   6  -2  -7   21.96    8.05
   6  -2  -7   15.45    7.06
  -6   2   8   28.54   10.89
  -6   2   8   15.35   11.80
   6  -2  -8   27.43   11.47
   6  -2  -8   25.16    9.73
   6  -2  -9  622.94  206.03
  -6   2  10  181.25   56.36
   6  -2 -10  155.58   55.86
   6  -2 -11   35.88   16.51
  -6   2  12    8.40   10.82
   6  -2 -12    0.22    8.65
  -6   3   1  358.86  124.52
  -6   3   1  410.65  122.94
  -6   3   1  375.15  122.91
   6  -3  -1  364.97  124.40
   6  -3  -1  311.47  124.13
   6  -3  -1  341.84  122.86
   6  -3  -1  415.86  122.86
  -6   3   2   83.92   30.20
  -6   3   2   85.99   30.23
   6  -3  -2   90.27   30.62
   6  -3  -2   92.06   30.19
   6  -3  -2   95.52   30.09
  -6   3   3 6111.72 2100.43
  -6   3   3 6341.40 2100.42
   6  -3  -3 6254.44 2100.39
   6  -3  -3 6669.46 2100.37
  -6   3   4   11.90    6.05
  -6   3   4    6.43    5.22
   6  -3  -4   10.34    5.87
   6  -3  -4    9.77    4.83
  -6   3   5  241.43  102.41
  -6   3   5  277.94  102.47
   6  -3  -5  367.45  102.55
   6  -3  -5  332.35  102.43
  -6   3   6  476.86  177.82
  -6   3   6  515.87  177.90
   6  -3  -6  476.50  177.80
   6  -3  -6  666.71  177.92
  -6   3   7   93.71   33.83
  -6   3   7  100.91   34.86
   6  -3  -7  103.24   34.74
   6  -3  -7  103.83   33.95
  -6   3   8  506.61  153.20
   6  -3  -8  432.40  152.96
  -6   3   9  109.32   35.82
   6  -3  -9   96.85   35.29
  -6   3  10   12.07   10.17
   6  -3 -10   18.42    9.05
  -6   3  11   16.98   11.11
   6  -3 -11    0.72   10.01
  -6   4   1   76.23   26.73
  -6   4   1   75.03   25.79
  -6   4   1   72.91   25.81
   6  -4  -1   79.81   26.72
   6  -4  -1   77.47   26.17
   6  -4  -1   75.05   25.72
   6  -4  -1   79.68   25.65
  -6   4   2 1567.01  600.23
  -6   4   2 2027.45  595.20
  -6   4   2 2178.54  595.26
   6  -4  -2 1748.34  600.31
   6  -4  -2 1676.56  595.12
   6  -4  -2 1753.67  595.07
  -6   4   3    8.91    4.41
  -6   4   3    5.06    5.61
   6  -4  -3    7.52    4.96
   6  -4  -3    6.20    3.84
  -6   4   4 1025.67  328.72
  -6   4   4  981.50  328.74
   6  -4  -4  995.44  328.68
   6  -4  -4  985.07  328.61
  -6   4   5   20.63    7.31
  -6   4   5   16.76    7.79
   6  -4  -5   17.36    7.62
   6  -4  -5   13.17    6.63
  -6   4   6  180.20   52.15
  -6   4   6  136.89   52.08
   6  -4  -6  140.82   52.19
   6  -4  -6  165.35   51.87
  -6   4   7  168.93   60.34
  -6   4   7  162.85   60.87
   6  -4  -7  201.29   60.25
  -6   4   8    4.12    5.98
   6  -4  -8    3.31    4.96
  -6   4   9    7.59    9.30
  -6   4  10  319.69  106.68
  -6   4  11    7.98   15.15
   6  -4 -11    0.69   11.69
  -6   5   1 1039.03  345.43
  -6   5   1 1104.13  345.45
   6  -5  -1  906.44  348.71
   6  -5  -1 1009.57  348.64
   6  -5  -1 1196.92  345.48
   6  -5  -1  980.59  345.35
  -6   5   2  142.87   58.98
  -6   5   2  177.01   58.43
  -6   5   2  190.15   58.42
   6  -5  -2  206.57   59.30
   6  -5  -2  166.36   58.41
   6  -5  -2  179.57   58.33
  -6   5   3   14.34    5.34
  -6   5   3    8.98    5.66
   6  -5  -3    6.21    5.08
   6  -5  -3   11.15    5.65
   6  -5  -3   13.47    5.08
  -6   5   4  380.75  125.56
  -6   5   4  401.10  125.78
   6  -5  -4  360.87  125.57
  -6   5   5   84.75   28.05
  -6   5   5   97.22   28.58
   6  -5  -5   70.67   28.14
   6  -5  -5   81.47   27.75
  -6   5   6   20.25    7.64
  -6   5   6   15.48   11.21
   6  -5  -6   17.15    7.25
  -6   5   7  835.70  266.96
   6  -5  -7  787.18  266.84
  -6   5   8    7.38    8.10
   6  -5  -9  359.64  119.85
   6  -5 -10    3.96   12.96
  -6   6   1  327.42  120.55
  -6   6   1  396.87  119.45
  -6   6   1  378.72  119.50
   6  -6  -1  416.61  120.97
   6  -6  -1  257.47  120.62
   6  -6  -1  388.39  119.49
   6  -6  -1  379.87  119.32
  -6   6   2  398.23  156.05
  -6   6   2  517.86  154.58
  -6   6   2  472.76  154.64
   6  -6  -2  602.56  156.40
   6  -6  -2  446.58  156.33
   6  -6  -2  405.11  154.52
   6  -6  -2  466.81  154.43
  -6   6   3    4.57    4.23
  -6   6   3    6.32    4.70
   6  -6  -3    1.54    4.92
   6  -6  -3    5.18    5.43
   6  -6  -3    1.93    4.80
   6  -6  -3    4.02    3.77
  -6   6   4  144.43   41.06
  -6   6   4  140.42   40.69
  -6   6   4  102.27   40.43
   6  -6  -4   74.41   40.93
   6  -6  -4  119.75   40.52
   6  -6  -4  136.64   40.37
  -6   6   5   22.31   27.51
  -6   6   5  115.13   27.40
   6  -6  -5   19.19   27.89
   6  -6  -5  106.58   27.08
  -6   6   6  354.76  112.40
   6  -6  -6  325.58  112.26
  -6   6   7   38.39   15.61
   6  -6  -7   35.71   14.38
  -6   6   8    8.43   14.81
  -6   6   9   34.97   20.20
   6  -6  -9   -2.53   13.85
  -6   7   1 1839.48  581.86
  -6   7   1 1636.62  581.80
   6  -7  -1 2299.83  587.39
   6  -7  -1 1447.19  587.14
   6  -7  -1 1500.36  581.79
   6  -7  -1 1957.99  581.80
  -6   7   2    0.92    5.91
  -6   7   2    5.82    5.65
  -6   7   2    6.46    5.92
   6  -7  -2   13.18    9.47
   6  -7  -2    5.41    8.24
   6  -7  -2    6.23    5.52
   6  -7  -2    8.92    5.11
  -6   7   3    3.33    7.90
  -6   7   3    0.98    5.14
  -6   7   3   -0.25    6.12
   6  -7  -3    1.85    5.08
   6  -7  -3    4.40    9.40
   6  -7  -3    0.23    4.49
  -6   7   4  762.77  234.50
  -6   7   4  688.64  232.18
   6  -7  -4  762.13  234.70
   6  -7  -4  401.63  234.41
   6  -7  -4  840.49  232.22
  -6   7   5    2.10    6.31
  -6   7   5    5.51    8.86
  -6   7   5    4.70    8.07
   6  -7  -5    5.84    7.87
   6  -7  -5    4.17   10.31
   6  -7  -5    1.65    7.54
  -6   7   6   44.27   26.30
  -6   7   6   85.36   28.68
   6  -7  -6   97.63   26.71
  -6   7   7  579.39  207.40
   6  -7  -7  660.04  207.14
   6  -7  -8    1.40   12.23
  -6   8   1  361.18  211.21
  -6   8   1  674.73  209.29
   6  -8  -1  931.34  212.08
   6  -8  -1  436.17  211.54
   6  -8  -1  795.13  209.26
  -6   8   2   13.46   12.74
  -6   8   2   24.11   10.01
   6  -8  -2   31.29   13.70
   6  -8  -2   11.99   14.16
   6  -8  -2   29.03    9.69
  -6   8   3  268.57   89.68
  -6   8   3  421.63   88.99
   6  -8  -3   73.53   89.46
   6  -8  -3   53.16   89.38
   6  -8  -3  407.69   88.52
  -6   8   4  191.45   78.03
  -6   8   4  267.11   77.68
   6  -8  -4  218.33   78.68
   6  -8  -4  238.27   76.77
  -6   8   5   26.78   18.84
  -6   8   5   65.25   20.31
   6  -8  -5   58.68   18.57
  -6   8   6   86.82   61.64
  -6   8   6  248.21   62.63
   6  -8  -6  252.62   61.30
  -6   8   7   88.06   24.22
   6  -8  -7    3.95   16.10
  -6   9   1   17.39   11.31
   6  -9  -1    8.75   17.35
   6  -9  -1   13.74    9.65
  -6   9   2   58.63   19.33
   6  -9  -2   36.92   22.31
   6  -9  -2   40.86   17.77
  -6   9   3   -4.35   13.21
  -6   9   3   11.60   13.61
   6  -9  -3   14.50    9.97
  -6   9   4   83.02   41.18
  -6   9   4  150.50   41.40
   6  -9  -4   94.85   42.76
   6  -9  -4  123.16   39.05
  -6   9   5   13.39   14.16
  -6   9   5   73.92   23.10
   6  -9  -5   26.60   16.39
   6  -9  -5    0.18   11.51
  -6   9   6   13.90   22.75
   6  -9  -6    4.45   10.24
  -6  10   1  343.70  102.57
   6 -10  -1  286.32  101.54
  -6  10   2  237.52   74.24
   6 -10  -2  130.60   74.85
   6 -10  -2  241.18   72.94
  -6  10   3   96.67   25.58
   6 -10  -3   34.05   29.73
   6 -10  -3   47.87   22.37
  -6  10   4   13.83   20.05
  -6  10   4   64.20   22.88
   6 -10  -4   -0.74   11.19
  -6  10   5  208.52   38.57
   6 -10  -5    0.04   28.87
  -6  11   1    9.47   14.55
   6 -11  -1   -2.14   21.60
   6 -11  -1   11.83    9.86
  -6  11   2  -20.05   31.99
  -6  11   2    6.04   15.01
   6 -11  -2   22.56   24.72
   6 -11  -2    1.62    9.54
  -6  11   3   38.05   24.11
   6 -11  -3   -8.12   19.24
   6 -11  -3    4.93   16.58
  -6  11   4    4.04   22.98
   6 -11  -4    1.12   12.30
  -6  12   1    7.83   17.74
   6 -12  -1   -3.52   24.74
   6 -12  -1    8.23   10.83
  -6  12   2  105.57   28.52
   6 -12  -2    7.10   18.23
  -5 -10   4    4.62   21.45
   5  10  -4    0.03   18.95
  -5 -10   5  180.48   52.39
  -5 -10   5    2.40   46.50
   5  10  -5  172.13   51.10
   5  10  -5  199.68   51.50
  -5 -10   6  110.80   49.00
  -5 -10   6  180.47   45.67
   5  10  -6   -3.26   44.05
   5  10  -6  132.43   47.95
  -5 -10   7  230.55   27.33
  -5 -10   7  300.33   78.62
   5  10  -7   12.55   81.05
   5  10  -7  280.91   80.12
  -5 -10   8  110.19   59.46
  -5 -10   8  196.91   48.10
   5  10  -8    4.07   52.42
   5  10  -8  134.43   50.22
  -5 -10   9  197.48   91.18
  -5 -10   9  274.17   84.37
   5  10  -9  233.54   85.56
  -5 -10  10   65.89   31.19
   5  10 -10   80.36   34.25
  -5 -10  11  341.06  104.25
   5  10 -11  261.37  105.07
  -5  -9   1    2.44   16.52
   5   9  -1    3.02   12.07
  -5  -9   2   16.16   14.29
   5   9  -2   15.44   16.20
   5   9  -2   17.57   33.58
  -5  -9   3  184.04   47.20
  -5  -9   3    2.68   44.20
   5   9  -3  134.26   46.44
   5   9  -3  182.84   48.84
  -5  -9   4  550.07  145.11
  -5  -9   4    1.19  140.91
   5   9  -4  624.99  145.10
   5   9  -4  606.56  143.99
  -5  -9   5  434.36  147.83
  -5  -9   5  458.64  144.90
   5   9  -5  425.85  147.79
   5   9  -5  405.71  145.46
  -5  -9   6 1029.45  341.56
  -5  -9   6 1032.62  336.98
   5   9  -6  934.58  341.72
   5   9  -6 1058.25  337.46
  -5  -9   7   20.67   28.72
  -5  -9   7   44.81   18.59
   5   9  -7   29.48   26.40
   5   9  -7   37.41   21.15
  -5  -9   8   16.22   27.26
  -5  -9   8    5.75   13.69
   5   9  -8    4.20   16.99
  -5  -9   9   53.64   38.83
  -5  -9   9   75.38   24.74
   5   9  -9   37.19   26.31
  -5  -9  10   23.67   16.84
   5   9 -10   12.69   18.77
  -5  -9  11   37.20   46.49
  -5  -9  11   64.06   25.45
   5   9 -11   59.20   26.52
  -5  -9  12  228.22   72.28
   5   9 -12  187.72   73.46
  -5  -8   1    9.64   14.19
  -5  -8   1   -3.39   13.85
   5   8  -1    5.76   11.17
   5   8  -1    4.64   27.83
  -5  -8   2   58.89   22.94
  -5  -8   2    1.45   20.84
   5   8  -2   56.77   21.88
   5   8  -2   74.69   28.60
  -5  -8   3  708.82  230.43
  -5  -8   3  794.03  227.98
   5   8  -3  648.14  230.01
   5   8  -3  571.67  227.99
  -5  -8   4   97.21   38.15
  -5  -8   4  107.66   36.81
   5   8  -4   79.70   37.55
   5   8  -4  109.32   37.05
  -5  -8   5 1355.77  488.12
  -5  -8   5 1413.26  482.89
   5   8  -5 1515.96  488.20
   5   8  -5 1568.78  483.30
  -5  -8   6   99.42   38.26
  -5  -8   6  101.05   34.76
   5   8  -6   84.50   38.51
   5   8  -6   98.50   35.85
  -5  -8   7 1737.77  563.57
  -5  -8   7 1741.37  557.36
   5   8  -7 1578.86  557.53
  -5  -8   8   27.46   25.61
  -5  -8   8   11.10   13.14
   5   8  -8   17.68   15.55
  -5  -8   9   15.16   27.81
  -5  -8   9    4.68   12.24
   5   8  -9    4.95   15.07
  -5  -8  10  114.73   51.20
  -5  -8  10  125.43   41.77
   5   8 -10  107.98   42.37
  -5  -8  11    4.04   13.37
   5   8 -11    5.94   14.56
  -5  -8  12  443.71  129.26
  -5  -8  12  331.93  119.92
   5   8 -12  350.37  120.96
  -5  -8  13   10.65   14.77
   5   8 -13   -1.82   15.91
  -5  -7   1  623.65  134.47
  -5  -7   1   72.73  131.73
   5   7  -1  432.04  133.87
  -5  -7   2 1191.81  399.86
  -5  -7   2 1065.69  395.99
   5   7  -2 1170.45  399.72
   5   7  -2 1402.53  396.50
  -5  -7   3   23.77   15.22
  -5  -7   3   14.81   12.89
   5   7  -3   22.80   11.77
   5   7  -3   21.96   14.88
  -5  -7   4  131.87   48.15
  -5  -7   4  132.35   46.12
   5   7  -4  143.31   48.11
   5   7  -4  130.06   46.67
  -5  -7   5  388.02  123.38
  -5  -7   5  356.35  121.10
   5   7  -5  338.75  123.30
   5   7  -5  375.86  121.46
  -5  -7   6 1564.40  561.96
  -5  -7   6 1676.10  556.35
   5   7  -6 1798.35  556.59
  -5  -7   7  120.03   41.87
  -5  -7   7  104.37   38.55
   5   7  -7  112.74   39.33
  -5  -7   8   76.81   34.80
  -5  -7   8   81.71   28.58
   5   7  -8   76.68   29.49
  -5  -7   9 2239.04  727.13
  -5  -7   9 2339.66  719.61
   5   7  -9 1939.81  719.58
  -5  -7  10   13.00   28.65
  -5  -7  10   13.30   12.65
   5   7 -10   14.31   13.22
  -5  -7  11    8.72   28.07
  -5  -7  11   24.04   13.69
   5   7 -11   24.82   16.98
  -5  -7  12  600.31  187.68
  -5  -7  12  487.44  181.28
   5   7 -12  598.37  181.83
  -5  -7  13   96.18   45.48
  -5  -7  13  130.93   30.87
   5   7 -13    5.26   31.29
  -5  -7  14   68.20   20.57
   5   7 -14   -2.30   21.33
  -5  -6   1 1102.71  432.73
  -5  -6   1 1625.03  429.10
   5   6  -1 1162.34  432.69
   5   6  -1 1383.64  429.26
  -5  -6   2  153.89   53.12
  -5  -6   2  132.93   52.36
   5   6  -2  155.63   53.18
   5   6  -2  176.93   52.89
  -5  -6   3  979.06  269.16
  -5  -6   3  720.92  266.03
   5   6  -3  838.55  268.90
   5   6  -3  695.01  266.13
  -5  -6   4   20.72   12.96
  -5  -6   4   33.36   13.43
   5   6  -4   26.78   13.54
   5   6  -4   32.70   15.74
  -5  -6   5  303.99  113.47
  -5  -6   5  380.30  111.99
   5   6  -5  275.41  113.25
   5   6  -5  379.68  112.21
  -5  -6   6  185.17   64.39
  -5  -6   6  185.31   63.11
   5   6  -6  193.63   63.45
  -5  -6   7   38.90   18.18
  -5  -6   7   52.50   16.71
   5   6  -7   29.61   17.35
  -5  -6   8   61.14   24.46
  -5  -6   8   52.16   21.27
   5   6  -8   56.92   22.09
  -5  -6   9  107.03   37.38
   5   6  -9  107.39   37.55
  -5  -6  10   24.56   16.78
  -5  -6  10   18.86   11.79
   5   6 -10   18.41   12.44
  -5  -6  11    5.10   23.87
  -5  -6  11    1.03    9.77
   5   6 -11    3.82   10.55
  -5  -6  12    9.93   30.08
  -5  -6  12   17.57   11.80
   5   6 -12   21.10   13.41
  -5  -6  13  831.73  178.49
  -5  -6  13  802.75  170.35
   5   6 -13    0.76  168.80
  -5  -6  14   27.56   15.53
   5   6 -14   -1.73   18.63
  -5  -5   1  716.98  238.00
   5   5  -1  708.09  237.89
  -5  -5   2 1890.39  657.08
  -5  -5   2 1977.53  651.18
   5   5  -2 1989.39  657.03
   5   5  -2 2039.55  651.27
  -5  -5   3   70.89   25.31
  -5  -5   3  108.88   24.98
  -5  -5   3   43.46   25.99
   5   5  -3   82.46   25.13
   5   5  -3   48.46   26.45
   5   5  -3   42.92   24.94
   5   5  -3   72.18   24.75
  -5  -5   4 1875.18  586.59
  -5  -5   4 1967.16  581.16
  -5  -5   4 1779.51  581.54
   5   5  -4 1937.70  586.48
   5   5  -4 1661.67  586.69
   5   5  -4 1268.36  581.10
   5   5  -4 1707.44  581.14
  -5  -5   5  291.04   93.37
  -5  -5   5  359.30   92.03
  -5  -5   5  244.47   92.44
   5   5  -5  218.23   93.36
   5   5  -5  233.41   92.14
   5   5  -5  272.38   91.95
  -5  -5   6  323.48   87.96
  -5  -5   6  300.44   86.49
  -5  -5   6  213.95   87.06
   5   5  -6  224.36   88.10
   5   5  -6  165.16   86.51
   5   5  -6  298.36   86.61
  -5  -5   7   22.31   15.48
  -5  -5   7   24.58   11.03
   5   5  -7   19.74   14.13
   5   5  -7   30.42   11.48
  -5  -5   8  113.72   35.19
  -5  -5   8   71.00   35.19
  -5  -5   8  122.11   33.97
   5   5  -8   56.29   34.38
   5   5  -8  134.86   34.21
  -5  -5   9  455.15  154.40
  -5  -5   9  485.07  152.20
   5   5  -9  427.44  152.19
  -5  -5  10  200.76   69.47
  -5  -5  10  186.70   66.92
   5   5 -10  216.13   67.52
  -5  -5  11   16.75   18.25
  -5  -5  11   21.48   11.19
   5   5 -11   22.21   12.63
  -5  -5  12  247.46   82.35
   5   5 -12  242.96   82.58
  -5  -5  13  380.64   74.85
   5   5 -13   -1.10   73.69
  -5  -5  14  370.87   74.51
   5   5 -14    0.72   73.14
  -5  -4   1  663.45  222.16
  -5  -4   1  770.96  219.98
  -5  -4   1  595.43  220.45
   5   4  -1  653.24  222.03
   5   4  -1  618.52  222.42
   5   4  -1  616.22  220.27
   5   4  -1  684.78  219.97
  -5  -4   2   49.89   19.71
  -5  -4   2   66.92   19.70
  -5  -4   2   51.32   21.37
   5   4  -2   52.64   19.34
   5   4  -2   50.60   20.30
   5   4  -2   48.49   21.02
   5   4  -2   59.54   19.63
  -5  -4   3 2577.77  857.97
  -5  -4   3 2485.90  850.33
  -5  -4   3 2364.37  850.61
   5   4  -3 2803.80  857.94
   5   4  -3 2615.11  858.06
   5   4  -3 2558.95  850.47
   5   4  -3 2553.27  850.38
  -5  -4   4   56.70   21.58
  -5  -4   4   50.33   21.18
  -5  -4   4   70.96   23.06
   5   4  -4   60.14   21.74
   5   4  -4   80.95   22.89
   5   4  -4   60.13   22.16
   5   4  -4   52.68   21.23
  -5  -4   5   31.84   12.77
  -5  -4   5   37.69   12.38
  -5  -4   5   32.32   14.62
   5   4  -5   26.95   12.73
   5   4  -5   26.17   12.29
  -5  -4   6  949.65  302.33
  -5  -4   6  973.12  299.31
  -5  -4   6  921.46  299.67
   5   4  -6  733.44  302.29
   5   4  -6  820.62  299.34
   5   4  -6 1011.64  299.39
  -5  -4   7  124.14   32.91
  -5  -4   7   83.99   34.01
  -5  -4   7  108.95   31.78
  -5  -4   7   90.72   33.04
   5   4  -7   57.85   32.46
   5   4  -7   75.91   32.35
   5   4  -7  105.40   31.89
  -5  -4   8    4.90    9.40
  -5  -4   8    3.07    9.45
  -5  -4   8    3.63    5.87
  -5  -4   8    4.31   11.34
   5   4  -8    3.14    7.31
   5   4  -8    3.49    8.08
   5   4  -8    2.65    6.80
  -5  -4   9  212.76   53.58
  -5  -4   9  102.10   52.03
  -5  -4   9  215.43   51.34
   5   4  -9   91.93   51.95
   5   4  -9  177.63   51.69
  -5  -4  10  165.52   45.98
  -5  -4  10   75.52   43.69
  -5  -4  10  138.19   42.97
   5   4 -10  155.96   43.34
  -5  -4  11  705.97  197.62
  -5  -4  11  517.68  194.11
   5   4 -11  604.30  194.33
  -5  -4  12    0.50   19.79
  -5  -4  12   -0.78    9.75
   5   4 -12   11.73   15.06
  -5  -4  13  354.66  102.46
  -5  -4  13  487.76   96.97
   5   4 -13    4.27   96.18
  -5  -4  14   -4.25   19.15
  -5  -3   1  453.54  149.46
  -5  -3   1  417.89  147.78
  -5  -3   1  498.25  148.39
   5   3  -1  405.47  149.39
   5   3  -1  448.46  149.74
   5   3  -1  537.05  148.16
   5   3  -1  412.45  147.82
  -5  -3   2  173.24   57.41
  -5  -3   2  165.07   56.62
  -5  -3   2  174.64   57.08
   5   3  -2  179.54   57.30
   5   3  -2  164.83   57.66
   5   3  -2  169.51   56.98
   5   3  -2  162.33   56.64
  -5  -3   3    2.09    4.16
  -5  -3   3    2.84    5.52
  -5  -3   3    4.25    6.91
   5   3  -3    1.80    4.29
   5   3  -3    0.46    5.10
   5   3  -3    3.18    5.43
   5   3  -3    1.11    5.51
  -5  -3   4    3.85    4.67
  -5  -3   4    8.69    6.07
  -5  -3   4    5.48    7.05
   5   3  -4    6.53    4.75
   5   3  -4    5.03    7.23
   5   3  -4    5.45    6.25
   5   3  -4   12.15    6.27
  -5  -3   5  594.34  210.64
  -5  -3   5  692.20  208.53
  -5  -3   5  625.55  208.76
   5   3  -5  677.57  210.86
   5   3  -5  599.30  208.58
   5   3  -5  592.58  208.51
  -5  -3   6   99.71   34.63
  -5  -3   6  106.88   33.88
  -5  -3   6  101.83   34.51
   5   3  -6  100.63   35.43
   5   3  -6   93.01   34.24
   5   3  -6  100.08   34.01
  -5  -3   7  159.09   57.10
  -5  -3   7  183.57   56.02
  -5  -3   7  174.36   56.64
   5   3  -7  130.04   56.90
   5   3  -7  181.92   56.33
   5   3  -7  178.95   56.14
  -5  -3   8   44.84   14.07
  -5  -3   8   18.30   12.70
  -5  -3   8   46.90   12.62
  -5  -3   8   36.99   13.27
   5   3  -8   21.90   12.62
   5   3  -8   31.06   13.03
   5   3  -8   37.59   12.39
  -5  -3   9   78.47   23.77
  -5  -3   9   44.74   22.23
  -5  -3   9  103.18   22.00
  -5  -3   9   65.97   22.66
   5   3  -9   38.55   22.02
   5   3  -9   46.09   22.25
   5   3  -9   67.30   21.68
  -5  -3  10 2787.68  621.16
  -5  -3  10 1272.98  620.32
  -5  -3  10 2111.18  614.96
   5   3 -10 1170.72  620.17
   5   3 -10 2534.39  615.20
  -5  -3  11   10.46   15.38
  -5  -3  11    3.03    6.71
  -5  -3  11    8.63   10.45
   5   3 -11    5.76    6.81
   5   3 -11   19.48   11.00
  -5  -3  12  486.88  158.50
   5   3 -12  467.37  158.68
  -5  -3  13  334.41  114.77
  -5  -3  13  621.80  111.06
   5   3 -13    2.35  108.44
  -5  -3  14  469.13   83.06
   5   3 -14    0.33   79.30
  -5  -2   1 1019.40  326.35
  -5  -2   1 1032.78  323.22
  -5  -2   1  960.81  323.43
   5   2  -1  934.87  326.19
   5   2  -1 1004.48  326.39
   5   2  -1 1049.75  323.31
   5   2  -1  874.04  323.17
  -5  -2   2  708.92  245.79
  -5  -2   2  749.41  243.35
  -5  -2   2  786.59  243.63
   5   2  -2  687.87  245.68
   5   2  -2  801.36  245.89
   5   2  -2  740.92  243.44
   5   2  -2  716.25  243.36
  -5  -2   3  123.70   39.60
  -5  -2   3  111.22   38.88
  -5  -2   3  121.61   39.32
   5   2  -3  116.58   39.41
   5   2  -3  122.14   39.76
   5   2  -3  109.03   39.25
   5   2  -3  114.68   38.93
  -5  -2   4 1737.71  569.37
  -5  -2   4 1737.43  564.24
  -5  -2   4 1684.99  564.39
   5   2  -4 1573.75  569.23
   5   2  -4 1872.82  569.47
   5   2  -4 1820.39  564.34
   5   2  -4 1608.12  564.24
  -5  -2   5    8.85    5.46
  -5  -2   5    8.04    6.79
   5   2  -5   15.55    8.10
   5   2  -5    8.43    6.41
   5   2  -5    6.46    5.33
  -5  -2   6   60.59   18.44
  -5  -2   6   47.62   18.92
  -5  -2   6   47.98   18.07
  -5  -2   6   56.49   18.74
   5   2  -6   41.60   18.66
   5   2  -6   61.76   18.56
   5   2  -6   48.42   17.93
  -5  -2   7  566.78  157.17
  -5  -2   7  448.28  157.37
   5   2  -7  444.31  157.19
   5   2  -7  417.03  157.07
  -5  -2   8  242.34   70.49
  -5  -2   8  158.70   70.05
  -5  -2   8  284.57   69.42
  -5  -2   8  230.53   69.98
   5   2  -8  133.56   69.96
   5   2  -8  252.60   69.71
   5   2  -8  198.62   69.34
  -5  -2   9 1280.63  326.40
  -5  -2   9  801.45  325.94
  -5  -2   9 1133.26  323.09
  -5  -2   9  958.99  323.50
   5   2  -9  572.18  325.77
   5   2  -9 1014.92  323.23
   5   2  -9 1296.75  323.30
  -5  -2  10  234.57   70.51
  -5  -2  10  147.65   69.71
  -5  -2  10  300.16   69.15
   5   2 -10  119.98   69.45
   5   2 -10  260.64   69.19
  -5  -2  11  199.31   96.30
  -5  -2  11  364.04   95.35
   5   2 -11  177.41   96.05
   5   2 -11  374.97   95.36
  -5  -2  12   94.90   50.31
   5   2 -12  164.54   48.56
  -5  -2  13   76.28   46.56
  -5  -2  13  258.75   45.03
   5   2 -13   -4.62   40.98
  -5  -1   1  100.11   37.37
  -5  -1   1  101.43   36.64
  -5  -1   1  116.82   36.95
   5   1  -1  119.71   37.22
   5   1  -1  114.13   37.43
   5   1  -1  116.83   36.93
   5   1  -1  102.94   36.72
  -5  -1   2  322.45  114.38
  -5  -1   2  333.90  113.07
  -5  -1   2  328.43  113.21
   5   1  -2  334.41  114.27
   5   1  -2  394.33  114.44
   5   1  -2  343.16  113.14
   5   1  -2  340.19  113.07
  -5  -1   3  304.96  110.38
  -5  -1   3  329.39  109.15
  -5  -1   3  308.28  109.28
   5   1  -3  297.02  110.27
   5   1  -3  315.90  110.43
   5   1  -3  407.42  109.30
   5   1  -3  342.48  109.17
  -5  -1   4    3.59    3.58
  -5  -1   4    4.63    4.37
  -5  -1   4    6.49    5.40
   5   1  -4    8.56    4.80
   5   1  -4    5.24    4.46
   5   1  -4   10.67    4.30
  -5  -1   5  160.56   56.20
  -5  -1   5  165.67   56.40
  -5  -1   5  164.57   55.48
  -5  -1   5  167.81   55.72
   5   1  -5  138.14   56.09
   5   1  -5  210.23   55.67
   5   1  -5  165.79   55.52
  -5  -1   6  473.37  164.35
  -5  -1   6  376.15  164.36
  -5  -1   6  559.44  162.81
  -5  -1   6  526.69  162.96
   5   1  -6  466.53  162.82
   5   1  -6  527.87  162.84
  -5  -1   7   47.14   16.06
  -5  -1   7   38.75   16.57
   5   1  -7   51.61   16.57
   5   1  -7   43.60   16.02
  -5  -1   8  769.32  255.19
  -5  -1   8  691.25  255.39
   5   1  -8  814.81  255.44
   5   1  -8  796.38  255.27
  -5  -1   9  193.20   54.88
  -5  -1   9  162.37   55.93
   5   1  -9  177.82   55.31
   5   1  -9  129.37   54.71
  -5  -1  10  545.95  145.36
   5   1 -10  306.03  146.55
  -5  -1  11  413.77  111.47
   5   1 -11  185.56  112.39
   5   1 -11  355.14  111.28
  -5  -1  12  401.74  160.49
   5   1 -12  557.67  160.66
  -5  -1  13    5.89   19.69
   5   1 -13    1.74   17.80
  -5   0   1  909.45  308.78
  -5   0   1  823.25  305.83
  -5   0   1  945.31  305.91
   5   0  -1  866.77  308.67
   5   0  -1 1029.95  308.80
   5   0  -1  896.52  305.89
   5   0  -1 1054.45  305.92
  -5   0   2  432.02  157.44
  -5   0   2  535.32  155.83
  -5   0   2  433.68  155.83
   5   0  -2  460.70  157.30
   5   0  -2  492.16  157.42
   5   0  -2  495.17  155.84
   5   0  -2  436.29  155.80
  -5   0   3  931.33  302.66
  -5   0   3  961.31  299.86
  -5   0   3  998.64  299.90
   5   0  -3  808.36  302.54
   5   0  -3  918.52  302.66
   5   0  -3  794.31  299.82
   5   0  -3  973.78  299.90
  -5   0   4  596.89  219.23
  -5   0   4  635.77  219.27
   5   0  -4  762.43  221.50
   5   0  -4  716.79  219.29
   5   0  -4  652.90  219.28
  -5   0   5  422.77  126.40
  -5   0   5  377.02  126.42
   5   0  -5  350.87  126.40
   5   0  -5  370.96  126.38
  -5   0   6  558.36  194.67
  -5   0   6  697.87  194.86
   5   0  -6  635.44  194.77
   5   0  -6  511.22  194.61
  -5   0   7 2397.08  822.96
  -5   0   7 2275.28  823.05
   5   0  -7 2924.80  823.11
   5   0  -7 2412.59  822.91
  -5   0   8  453.41  137.64
  -5   0   8  381.71  137.93
   5   0  -8  373.07  137.70
   5   0  -8  437.23  137.66
  -5   0   9 1179.21  357.18
  -5   0   9  941.90  357.35
   5   0  -9  982.54  357.26
   5   0  -9 1149.17  357.15
  -5   0  10   51.16   18.47
   5   0 -10   46.60   17.81
  -5   0  11 1620.13  540.18
   5   0 -11 1647.85  539.99
  -5   0  12   20.17   13.02
   5   0 -12   25.01   12.93
  -5   0  13    2.29   10.65
   5   0 -13    8.54   13.24
  -5   1   1  919.25  309.10
  -5   1   1  907.31  309.19
  -5   1   1  965.70  306.29
  -5   1   1 1004.73  306.36
   5  -1  -1  870.92  309.10
   5  -1  -1  942.27  309.14
   5  -1  -1  905.26  306.27
  -5   1   2  666.54  189.61
  -5   1   2  506.00  189.57
   5  -1  -2  519.98  191.36
   5  -1  -2  561.23  189.57
   5  -1  -2  604.30  189.57
  -5   1   3   31.32   10.40
  -5   1   3   27.04   10.45
   5  -1  -3   27.25   10.36
   5  -1  -3   30.54   10.30
  -5   1   4   70.48   25.42
  -5   1   4   71.33   25.46
   5  -1  -4   74.89   25.43
   5  -1  -4   84.48   25.41
  -5   1   5  721.26  250.53
  -5   1   5  782.84  250.62
   5  -1  -5  752.41  250.58
   5  -1  -5  785.32  250.58
  -5   1   6  635.82  170.75
  -5   1   6  440.28  170.66
   5  -1  -6  430.51  170.61
   5  -1  -6  550.07  170.69
  -5   1   7   45.04   17.29
  -5   1   7   50.10   17.29
   5  -1  -7   40.55   17.23
   5  -1  -7   59.65   17.05
  -5   1   8 1478.99  483.18
  -5   1   8 1602.60  483.40
   5  -1  -8 1559.69  483.26
   5  -1  -8 1296.76  483.05
  -5   1   9   27.06    9.89
  -5   1   9   15.59   13.36
   5  -1  -9   11.48   10.52
   5  -1  -9   28.85    9.60
  -5   1  10  505.46  153.76
   5  -1 -10  424.70  153.50
  -5   1  11  189.28   63.90
   5  -1 -11  189.76   63.70
  -5   1  12   30.80   14.09
   5  -1 -12   27.96   13.80
  -5   2   1   53.52   19.58
  -5   2   1   59.26   19.61
   5  -2  -1   57.69   19.93
   5  -2  -1   58.78   19.90
   5  -2  -1   62.58   19.64
   5  -2  -1   56.64   19.53
  -5   2   2   24.61   10.94
  -5   2   2   29.30   11.42
  -5   2   2   32.48   11.04
  -5   2   2   33.98   11.10
   5  -2  -2   35.02   11.34
   5  -2  -2   29.88   11.01
   5  -2  -2   35.40   11.12
   5  -2  -2   31.12   10.92
  -5   2   3 1382.25  453.68
  -5   2   3 1235.89  453.63
   5  -2  -3 1398.56  453.66
   5  -2  -3 1473.13  453.66
  -5   2   4   24.05    9.32
  -5   2   4   22.86    9.33
   5  -2  -4   32.38    9.55
   5  -2  -4   23.48    9.43
  -5   2   5  183.97   64.50
   5  -2  -5  162.78   64.40
   5  -2  -5  233.79   64.50
  -5   2   6  106.94   30.45
  -5   2   6   82.23   30.47
   5  -2  -6   91.81   30.42
   5  -2  -6   83.16   30.28
  -5   2   7 2262.76  781.18
  -5   2   7 2386.65  781.27
   5  -2  -7 2372.81  781.24
   5  -2  -7 2426.67  781.10
  -5   2   8 1102.35  394.89
   5  -2  -8 1280.51  394.91
  -5   2   9  128.19   40.17
  -5   2   9  107.03   42.43
   5  -2  -9  136.61   41.19
   5  -2  -9  105.60   39.68
  -5   2  10  198.43   66.90
   5  -2 -10  200.07   66.59
  -5   2  11  149.24   50.56
  -5   3   1   70.90   27.58
  -5   3   1   75.32   28.05
  -5   3   1   99.43   27.37
  -5   3   1   87.18   27.36
   5  -3  -1   71.19   27.66
   5  -3  -1   92.35   27.37
   5  -3  -1   73.76   27.23
  -5   3   2  949.60  315.67
  -5   3   2 1241.81  315.76
   5  -3  -2  817.69  318.60
   5  -3  -2  870.10  315.61
   5  -3  -2  901.95  315.61
  -5   3   3    3.90    3.72
  -5   3   3    3.69    4.40
   5  -3  -3    4.62    3.83
   5  -3  -3    3.99    3.35
  -5   3   4 1530.95  475.18
  -5   3   4 1362.97  475.15
   5  -3  -4 1531.57  475.15
   5  -3  -4 1340.03  475.10
  -5   3   5  506.55  169.92
  -5   3   5  530.71  169.93
   5  -3  -5  513.89  169.89
   5  -3  -5  506.88  169.87
  -5   3   6 2581.20  877.96
  -5   3   6 2240.19  877.93
   5  -3  -6 3164.89  878.04
   5  -3  -6 2606.61  877.90
  -5   3   7  192.04   46.08
  -5   3   7  141.65   46.15
   5  -3  -7   94.44   45.93
   5  -3  -7  128.90   45.63
  -5   3   8  983.89  357.40
   5  -3  -8  992.54  357.38
   5  -3  -8 1187.23  357.16
  -5   3   9   40.54   16.16
   5  -3  -9   47.58   16.21
  -5   3  10    6.26    8.94
   5  -3 -10    7.33    7.39
  -5   3  11   15.84   12.44
  -5   4   1  106.85   32.32
  -5   4   1  102.24   32.30
   5  -4  -1   95.26   33.06
   5  -4  -1   72.67   32.61
   5  -4  -1  101.60   32.24
   5  -4  -1   99.18   32.17
  -5   4   2   21.99    8.04
  -5   4   2   23.42    8.74
  -5   4   2   19.77    8.46
   5  -4  -2   18.34    8.42
   5  -4  -2   25.64    8.52
   5  -4  -2   24.64    8.19
  -5   4   3  702.42  218.23
  -5   4   3  585.40  218.08
   5  -4  -3  698.94  218.15
   5  -4  -3  676.29  218.14
  -5   4   4  498.07  167.19
  -5   4   4  470.39  167.15
   5  -4  -4  500.12  167.11
   5  -4  -4  551.28  167.16
  -5   4   5 2436.10  931.49
  -5   4   5 3154.59  931.63
   5  -4  -5 2497.46  931.47
   5  -4  -5 3209.89  931.53
  -5   4   6  297.49  100.33
  -5   4   6  310.22  100.53
   5  -4  -6  295.12  100.39
   5  -4  -6  308.38  100.28
  -5   4   7  143.20   29.57
  -5   4   7   46.10   29.35
   5  -4  -7   58.17   29.29
   5  -4  -7   86.68   29.00
  -5   4   8  128.87   44.28
   5  -4  -8  133.67   44.38
  -5   4   9   93.68   78.28
  -5   4   9  308.45   77.58
  -5   4  10   -2.08   11.68
  -5   5   1  628.40  236.47
  -5   5   1  788.05  234.19
  -5   5   1  771.33  234.11
   5  -5  -1  646.42  236.47
   5  -5  -1  847.37  236.66
   5  -5  -1  619.21  234.08
   5  -5  -1  688.81  234.06
  -5   5   2  121.31   54.11
  -5   5   2  185.38   53.50
  -5   5   2  160.13   53.54
   5  -5  -2  168.20   54.24
   5  -5  -2  135.27   54.33
   5  -5  -2  165.10   53.61
   5  -5  -2  173.26   53.37
  -5   5   3  266.02   87.09
  -5   5   3  292.56   87.16
   5  -5  -3  199.60   88.10
   5  -5  -3  272.33   87.10
   5  -5  -3  263.96   86.99
  -5   5   4 2321.01  827.86
  -5   5   4 2460.28  827.81
   5  -5  -4 2034.43  835.20
   5  -5  -4 2225.52  827.80
   5  -5  -4 3174.42  827.90
  -5   5   5  268.12   93.00
  -5   5   5  192.71   93.23
  -5   5   5  285.69   92.14
  -5   5   5  295.36   92.38
   5  -5  -5  295.67   93.16
   5  -5  -5  222.24   93.40
   5  -5  -5  324.06   92.28
   5  -5  -5  283.69   92.02
  -5   5   6    6.49    5.42
  -5   5   6    9.86    7.30
  -5   5   6    7.07    5.28
  -5   5   6    9.61    8.45
   5  -5  -6    3.51    6.25
   5  -5  -6   10.36    4.63
  -5   5   7    1.28    9.25
  -5   5   7    3.72    7.25
   5  -5  -7    2.00    5.83
   5  -5  -7    3.13    6.91
  -5   5   8   -0.19   10.97
  -5   5   8    1.53    9.67
   5  -5  -8    2.33    7.00
   5  -5  -8    2.07    6.23
  -5   5   9  185.62   61.26
   5  -5  -9  172.97   60.43
  -5   6   1 1632.49  642.26
  -5   6   1 1930.16  636.36
  -5   6   1 1797.84  636.32
   5  -6  -1 1808.04  642.10
   5  -6  -1 1948.02  642.41
   5  -6  -1 2005.69  636.40
   5  -6  -1 2167.69  636.34
  -5   6   2   39.92   18.95
  -5   6   2   58.54   18.44
  -5   6   2   49.35   18.49
   5  -6  -2   56.02   18.91
   5  -6  -2   43.01   19.48
   5  -6  -2   51.70   18.57
   5  -6  -2   66.36   18.28
  -5   6   3 1527.41  612.99
  -5   6   3 1811.18  607.45
  -5   6   3 1862.24  607.51
   5  -6  -3 1809.91  612.95
   5  -6  -3 1587.13  613.06
   5  -6  -3 1990.61  607.52
   5  -6  -3 2041.72  607.43
  -5   6   4  270.03   76.27
  -5   6   4  181.86   76.61
  -5   6   4  222.25   75.31
   5  -6  -4  278.56   76.51
   5  -6  -4  184.83   76.66
   5  -6  -4  212.95   75.34
   5  -6  -4  221.92   75.19
  -5   6   5  669.96  217.15
  -5   6   5  557.04  217.61
  -5   6   5  642.53  215.15
  -5   6   5  577.10  215.21
   5  -6  -5  709.89  218.00
   5  -6  -5  688.81  215.20
   5  -6  -5  702.59  215.14
  -5   6   6   15.27    7.90
   5  -6  -6   13.87    8.48
  -5   6   7   16.22    9.88
  -5   6   7   13.22   10.36
   5  -6  -7   16.50    9.75
   5  -6  -8   32.61   14.64
  -5   6   9   63.49   22.73
  -5   6   9  112.01   28.70
   5  -6  -9   71.60   23.13
   5  -6  -9    0.33   21.07
  -5   7   1  385.05  150.84
  -5   7   1  477.38  149.30
  -5   7   1  408.32  149.16
   5  -7  -1  595.89  151.21
   5  -7  -1  389.25  150.98
   5  -7  -1  495.17  149.35
  -5   7   2 1021.38  405.75
  -5   7   2 1358.67  401.91
  -5   7   2 1155.64  401.82
   5  -7  -2 1241.02  405.89
   5  -7  -2 1283.25  401.93
  -5   7   3 1215.68  338.17
  -5   7   3  881.38  338.30
  -5   7   3 1043.77  334.88
  -5   7   3  931.24  334.82
   5  -7  -3 1087.34  338.18
   5  -7  -3  843.39  338.17
   5  -7  -3 1173.51  334.84
   5  -7  -3  874.88  334.83
  -5   7   4  457.30  142.79
  -5   7   4  260.91  142.96
  -5   7   4  427.04  141.20
   5  -7  -4  532.75  143.22
   5  -7  -4  294.69  143.49
   5  -7  -4  494.82  141.18
  -5   7   5   24.39   11.40
  -5   7   5    7.47   15.29
  -5   7   5   28.48   12.43
   5  -7  -5   33.01   13.61
   5  -7  -5   23.17   17.51
   5  -7  -5   26.05   10.45
  -5   7   6  410.04  156.80
  -5   7   6  500.15  155.68
   5  -7  -6  465.30  157.13
   5  -7  -6  518.26  155.38
  -5   7   7  157.70   57.79
   5  -7  -7  123.21   58.40
   5  -7  -7  211.64   56.96
  -5   7   8   52.68   19.78
  -5   7   8  108.13   34.37
   5  -7  -8    2.59   19.53
  -5   8   1  548.27  305.01
  -5   8   1 1102.74  302.26
  -5   8   1  790.27  301.97
   5  -8  -1 1238.64  305.63
   5  -8  -1  659.50  305.19
   5  -8  -1 1269.15  302.20
   5  -8  -1  761.96  302.07
  -5   8   2   19.92   16.36
  -5   8   2   29.83   13.27
   5  -8  -2   48.45   16.06
   5  -8  -2   34.07   12.78
  -5   8   3  165.22   43.61
  -5   8   3   68.72   43.98
  -5   8   3  128.46   42.42
   5  -8  -3  172.65   43.79
   5  -8  -3   72.07   43.82
   5  -8  -3  132.53   41.92
  -5   8   4   69.46   25.38
  -5   8   4   87.13   26.59
   5  -8  -4   66.61   27.51
   5  -8  -4   60.07   24.56
  -5   8   5   24.37   14.88
  -5   8   5   40.87   17.93
   5  -8  -5   18.67   16.42
   5  -8  -5   42.49   14.87
  -5   8   6    2.14   10.13
  -5   8   6    3.65   21.95
   5  -8  -6    3.03   13.12
   5  -8  -6    0.62    8.40
  -5   8   7   10.13   12.66
   5  -8  -7    0.35   13.77
  -5   9   1   55.38   20.34
   5  -9  -1   51.61   21.09
   5  -9  -1   41.26   17.71
  -5   9   2 1865.13  550.48
   5  -9  -2 1554.71  555.57
   5  -9  -2 1613.81  550.04
  -5   9   3   99.54   41.23
  -5   9   3  108.77   40.23
   5  -9  -3  127.91   41.25
   5  -9  -3  116.27   39.25
  -5   9   4  138.38   58.92
  -5   9   4  215.49   61.52
   5  -9  -4  143.89   60.56
   5  -9  -4  195.67   57.74
  -5   9   5   79.54   17.43
   5  -9  -5   -0.09   15.51
   5  -9  -5   -1.03   21.33
  -5   9   6   12.98   14.63
  -5   9   6   16.75   27.78
   5  -9  -6   -0.26   17.23
   5  -9  -6    0.28   17.66
  -5  10   1 1284.09  460.90
   5 -10  -1 1599.24  465.94
   5 -10  -1 1341.97  460.53
  -5  10   2    7.54   17.27
  -5  10   2    3.12   12.57
   5 -10  -2    0.07   14.16
   5 -10  -2    1.84    8.48
  -5  10   3   83.69   26.62
  -5  10   3   75.35   27.59
   5 -10  -3    3.45   27.56
   5 -10  -3   59.55   24.25
  -5  10   4  371.65   60.21
  -5  10   4  378.51   60.45
   5 -10  -4   -0.22   56.36
   5 -10  -4    3.11   55.67
  -5  10   5    1.81   17.26
  -5  10   5   -5.72   29.88
   5 -10  -5   10.96   18.28
   5 -10  -5    0.95   13.73
  -5  11   1   -3.23   14.66
   5 -11  -1   -3.69   17.58
   5 -11  -1    3.13    8.87
  -5  11   2   79.42   35.79
  -5  11   2   50.00   24.79
   5 -11  -2    7.35   29.05
   5 -11  -2   51.44   19.87
  -5  11   3   39.12   25.22
  -5  11   3   35.73   24.54
   5 -11  -3   -2.10   18.29
   5 -11  -3   -3.51   14.11
  -5  11   4   64.37   33.83
   5 -11  -4    4.60   18.83
  -5  12   1  363.34  108.15
  -5  12   1  429.09  105.30
   5 -12  -1    1.50  104.68
   5 -12  -1  367.93  101.98
  -5  12   2   -0.12   30.12
   5 -12  -2   14.08   30.05
   5 -12  -2    3.07   15.95
  -4 -11   5   22.18   29.96
  -4 -11   5   -1.87   21.89
   4  11  -5    4.60   25.97
   4  11  -5   13.20   33.40
  -4 -11   6   -8.65   30.98
  -4 -11   6    5.87   23.35
   4  11  -6    2.03   24.04
   4  11  -6  -11.85   33.00
  -4 -11   7    4.57   28.70
  -4 -11   7    9.58   23.04
   4  11  -7   22.86   34.50
   4  11  -7   15.44   32.16
  -4 -11   8   34.51   44.24
  -4 -11   8   63.47   31.80
   4  11  -8   87.06   38.79
  -4 -11   9  528.82  221.20
  -4 -11   9  720.83  214.71
   4  11  -9  608.22  216.04
  -4 -11  10   -3.13   21.98
   4  11 -10    6.65   30.05
   4  11 -11  847.53  283.69
  -4 -10   1   10.50   13.88
   4  10  -1    3.63   14.46
  -4 -10   2   52.17   24.07
   4  10  -2   52.15   25.34
  -4 -10   3    8.41   19.09
  -4 -10   3   -6.01   20.26
   4  10  -3   15.61   17.91
   4  10  -3   20.16   29.26
   4  10  -4    4.10   12.41
  -4 -10   4   -2.04   20.72
  -4 -10   4   -0.67   18.43
   4  10  -4   -3.41   26.33
  -4 -10   5  697.92  227.56
  -4 -10   5  600.68  223.85
   4  10  -5  625.55  227.68
   4  10  -5  791.81  225.30
  -4 -10   6    8.08   22.94
  -4 -10   6   18.65   17.35
   4  10  -6    0.15   24.03
   4  10  -6   17.91   24.18
  -4 -10   7   54.04   25.29
  -4 -10   7   42.61   23.36
   4  10  -7   50.11   28.68
  -4 -10   8   37.65   34.34
  -4 -10   8    6.83   16.38
   4  10  -8    4.94   23.15
  -4 -10   9  475.11  144.78
  -4 -10   9  376.52  137.73
  -4 -10  10 2100.87  695.69
  -4 -10  10 2158.72  686.92
   4  10 -10 1951.06  687.40
  -4 -10  11    0.93   38.89
  -4 -10  11    4.53   16.13
   4  10 -11    6.85   21.38
  -4 -10  12   11.38   22.60
   4  10 -12   16.41   27.47
  -4  -9   1   49.66    8.04
   4   9  -1   44.96    7.26
  -4  -9   1    8.56   20.74
   4   9  -1   40.71   31.45
  -4  -9   2  414.36   98.23
  -4  -9   2   -1.22   96.02
   4   9  -2  339.98   97.74
   4   9  -2  408.93   99.60
  -4  -9   3    3.01   16.76
  -4  -9   3    2.97   16.10
   4   9  -3    0.92   15.62
   4   9  -3    2.47   22.43
   4   9  -4   -4.96   11.69
  -4  -9   4    0.94   13.03
  -4  -9   4    4.06   13.53
   4   9  -4    4.38   26.03
  -4  -9   5  183.77   20.97
  -4  -9   5  186.53   64.50
   4   9  -5  187.84   67.21
   4   9  -5  193.95   66.97
  -4  -9   6   35.92   19.09
  -4  -9   6   29.09   17.76
   4   9  -6   39.54   23.73
  -4  -9   7  372.43  120.82
  -4  -9   7  344.59  117.32
   4   9  -7  340.06  118.39
  -4  -9   8   35.56   25.53
  -4  -9   8   26.42   17.87
   4   9  -8   41.05   22.68
  -4  -9   9  922.68  327.87
  -4  -9   9  899.29  322.88
   4   9  -9 1117.61  323.74
  -4  -9  10   52.40   35.94
  -4  -9  10   69.61   24.06
   4   9 -10   43.07   27.35
  -4  -9  11  133.51   54.87
  -4  -9  11  119.77   44.63
   4   9 -11  125.97   46.36
  -4  -9  12   31.41   34.76
  -4  -9  12   24.54   18.29
   4   9 -12   16.44   20.35
  -4  -9  13   24.74   22.87
   4   9 -13   -5.56   21.42
  -4  -8   1  118.65   35.44
  -4  -8   1    1.63   34.11
   4   8  -1  109.07   34.71
   4   8  -1  155.42   38.78
  -4  -8   2   79.41   30.95
  -4  -8   2   74.02   30.52
   4   8  -2   89.16   30.42
   4   8  -2   70.85   32.78
  -4  -8   3   66.44   27.67
  -4  -8   3   70.67   25.72
   4   8  -3   59.68   27.65
   4   8  -3   69.07   29.19
  -4  -8   4   13.63   16.99
  -4  -8   4   23.14   13.37
   4   8  -4   25.95   17.48
   4   8  -4   31.77   20.08
  -4  -8   5   69.38   29.22
  -4  -8   5   61.26   26.13
   4   8  -5   85.82   30.08
  -4  -8   6 3903.96 1112.46
  -4  -8   6 2941.77 1101.91
   4   8  -6 3338.80 1102.26
  -4  -8   7   14.29   17.92
  -4  -8   7   16.34   12.19
   4   8  -7   13.19   17.20
  -4  -8   8 1048.66  359.57
  -4  -8   8 1026.98  355.34
   4   8  -8 1156.48  355.80
  -4  -8   9 1256.89  355.27
  -4  -8   9  868.97  350.23
   4   8  -9 1158.58  350.89
  -4  -8  10  784.24  275.57
  -4  -8  10  794.27  271.33
   4   8 -10  880.45  271.85
  -4  -8  11   65.08   35.73
  -4  -8  11   84.44   28.30
   4   8 -11   64.78   29.73
  -4  -8  12  231.15   86.87
  -4  -8  12  246.66   81.07
   4   8 -12  232.82   81.46
  -4  -8  13  119.56   43.99
  -4  -8  13  107.26   29.33
   4   8 -13   -4.12   31.45
  -4  -8  14  248.83   51.89
   4   8 -14    0.17   49.89
  -4  -7   1   37.26   19.61
  -4  -7   1   38.81   19.37
   4   7  -1   43.94   18.90
   4   7  -1   62.31   22.03
  -4  -7   2  239.57   28.48
  -4  -7   2  234.84   80.46
   4   7  -2  229.42   81.50
   4   7  -2  256.38   81.11
  -4  -7   3  847.45  282.65
  -4  -7   3  751.41  279.45
   4   7  -3  894.58  282.65
   4   7  -3  898.58  280.23
  -4  -7   4   14.61   12.55
  -4  -7   4   11.84    9.75
   4   7  -4   15.05   15.04
  -4  -7   5  523.89  213.15
  -4  -7   5  732.55  210.82
   4   7  -5  624.55  211.09
  -4  -7   6  500.81  192.12
  -4  -7   6  570.83  189.80
   4   7  -6  643.89  190.33
  -4  -7   7 1236.70  472.49
  -4  -7   7 1451.48  467.87
   4   7  -7 1524.94  468.09
  -4  -7   8  273.88  136.60
  -4  -7   8  467.57  134.94
   4   7  -8  429.68  135.46
  -4  -7   9  489.02  161.38
  -4  -7   9  479.49  158.58
   4   7  -9  467.16  159.24
  -4  -7  10   47.45   25.99
  -4  -7  10   37.08   17.17
   4   7 -10   36.58   18.61
  -4  -7  11  275.30   98.15
  -4  -7  11  316.06   94.98
   4   7 -11  246.92   95.48
  -4  -7  12  169.64   65.98
  -4  -7  12  218.66   62.66
   4   7 -12  129.26   61.57
  -4  -7  13   21.93   34.44
  -4  -7  13    8.60   13.12
   4   7 -13   -5.40   14.09
  -4  -7  14   14.99   15.19
   4   7 -14    7.78   15.52
  -4  -6   1   72.16   25.85
  -4  -6   1   68.95   24.37
   4   6  -1   66.12   25.19
   4   6  -1   66.90   26.14
  -4  -6   2   32.75   16.28
  -4  -6   2   45.79   16.23
   4   6  -2   43.53   15.72
   4   6  -2   45.31   18.28
  -4  -6   3   64.26   21.43
  -4  -6   3   72.82   20.94
  -4  -6   3   23.71   21.06
   4   6  -3   65.33   21.52
   4   6  -3   44.22   22.67
   4   6  -3   30.90   20.43
   4   6  -3  101.51   22.84
  -4  -6   4  719.37  198.96
  -4  -6   4  740.07  196.71
  -4  -6   4  425.24  196.68
   4   6  -4  550.50  198.84
   4   6  -4  335.15  196.40
   4   6  -4  770.45  196.88
  -4  -6   5    1.21    8.38
  -4  -6   5    3.44    7.85
  -4  -6   5   -0.49    7.74
   4   6  -5   -1.36    9.59
   4   6  -5    1.52    6.37
   4   6  -5    2.70    9.95
  -4  -6   6  499.13  141.62
  -4  -6   6  565.86  139.91
  -4  -6   6  241.30  139.74
   4   6  -6  298.89  141.53
   4   6  -6  346.94  139.68
   4   6  -6  518.31  140.03
  -4  -6   7  208.80   58.73
  -4  -6   7   94.64   59.00
  -4  -6   7  297.92   57.89
   4   6  -7   77.22   58.51
   4   6  -7  164.48   57.75
  -4  -6   8  829.53  213.11
  -4  -6   8  492.68  212.75
  -4  -6   8  887.65  210.54
   4   6  -8  331.44  212.46
   4   6  -8  688.71  210.56
  -4  -6   9  133.35   40.24
  -4  -6   9   98.88   37.91
   4   6  -9  106.41   38.46
  -4  -6  10  529.10  128.01
  -4  -6  10  280.86  125.27
   4   6 -10  365.13  125.65
  -4  -6  11  137.87   38.93
  -4  -6  11   98.78   35.75
   4   6 -11   78.10   35.89
  -4  -6  12    6.45   18.01
  -4  -6  12    3.43   10.63
   4   6 -12    4.76   11.39
  -4  -6  13  570.91  100.87
  -4  -6  13  392.92   94.88
   4   6 -13   -4.15   93.53
  -4  -6  14   71.00   47.69
  -4  -6  14   61.65   26.15
  -4  -5   1    8.19    6.05
  -4  -5   1    4.53    6.35
  -4  -5   1    4.20    8.40
   4   5  -1    9.32    5.46
   4   5  -1    3.08    6.77
   4   5  -1    3.18    7.59
   4   5  -1    7.56    8.01
  -4  -5   2   65.18   17.94
  -4  -5   2   45.16   17.33
  -4  -5   2   35.89   18.04
   4   5  -2   59.27   18.10
   4   5  -2   32.62   18.04
   4   5  -2   32.80   17.19
   4   5  -2   58.10   18.42
  -4  -5   3 3813.66 1287.66
  -4  -5   3 4228.25 1276.57
  -4  -5   3 4465.11 1276.91
   4   5  -3 3669.39 1287.52
   4   5  -3 3821.36 1287.79
   4   5  -3 3459.51 1276.54
   4   5  -3 3880.46 1276.56
  -4  -5   4  263.46   89.55
  -4  -5   4  275.56   88.28
  -4  -5   4  253.09   88.81
   4   5  -4  267.51   89.77
   4   5  -4  266.63   88.53
   4   5  -4  262.64   88.38
  -4  -5   5  784.60  251.57
  -4  -5   5  758.24  248.92
  -4  -5   5  778.85  249.37
   4   5  -5  690.11  251.66
   4   5  -5  704.46  249.09
   4   5  -5  789.91  249.03
  -4  -5   6  528.26  153.20
  -4  -5   6  424.68  153.44
  -4  -5   6  507.62  151.37
  -4  -5   6  394.75  151.61
   4   5  -6  402.68  153.23
   4   5  -6  386.97  151.42
   4   5  -6  513.21  151.46
  -4  -5   7 2118.16  677.05
  -4  -5   7 1945.01  677.01
  -4  -5   7 2295.97  670.85
  -4  -5   7 1935.03  671.11
   4   5  -7 1842.17  676.89
   4   5  -7 1883.72  670.94
   4   5  -7 2088.16  670.90
  -4  -5   8  102.42   26.84
  -4  -5   8   69.21   26.80
  -4  -5   8   77.80   25.61
  -4  -5   8   63.17   26.94
   4   5  -8   47.34   26.28
   4   5  -8   72.21   26.31
   4   5  -8   97.49   26.04
  -4  -5   9   17.15   12.87
  -4  -5   9    7.73    8.11
  -4  -5   9   21.19    8.55
   4   5  -9    6.44    9.38
   4   5  -9   15.90    8.85
  -4  -5  10  329.55   67.92
  -4  -5  10  114.05   66.41
  -4  -5  10  301.25   66.06
   4   5 -10   73.29   66.24
   4   5 -10  293.05   66.34
  -4  -5  11  228.62   66.88
  -4  -5  11  184.64   64.43
   4   5 -11  176.94   64.57
  -4  -5  12  424.32  120.98
  -4  -5  12  377.96  118.00
   4   5 -12  286.44  117.91
  -4  -5  13   23.89   21.31
  -4  -5  13   29.41   14.92
  -4  -5  14   60.27   32.50
  -4  -5  14   47.16   20.05
   4   5 -14   -1.65   21.56
   4   4  -1   97.03   10.01
  -4  -4   1   99.92   34.61
  -4  -4   1  131.77   34.09
  -4  -4   1   84.71   34.73
   4   4  -1   88.07   34.93
   4   4  -1   75.58   34.24
   4   4  -1  110.49   34.41
   4   4  -2  703.42  103.60
  -4  -4   2  804.05  257.46
  -4  -4   2  608.38  254.77
  -4  -4   2  772.34  255.19
   4   4  -2  861.98  257.40
   4   4  -2  867.71  255.12
   4   4  -2  810.58  254.93
  -4  -4   3   41.27   14.11
  -4  -4   3   42.31   13.79
  -4  -4   3   37.27   15.32
   4   4  -3   37.14   14.72
   4   4  -3   31.32   14.35
   4   4  -3   36.83   14.33
  -4  -4   4 2199.90  648.88
  -4  -4   4 1515.42  642.87
  -4  -4   4 1971.30  643.24
   4   4  -4 1879.42  648.87
   4   4  -4 1924.19  643.08
   4   4  -4 2298.23  643.07
  -4  -4   5  128.38   50.38
  -4  -4   5  283.13   49.96
  -4  -4   5   35.54   49.82
   4   4  -5   36.62   50.65
   4   4  -5  143.38   49.94
   4   4  -5  155.34   49.88
  -4  -4   6 1356.32  393.79
  -4  -4   6 1120.83  393.78
  -4  -4   6 1112.84  389.92
  -4  -4   6 1303.57  390.32
   4   4  -6 1042.17  393.79
   4   4  -6 1210.38  390.10
   4   4  -6 1176.69  390.01
  -4  -4   7  256.67   83.43
  -4  -4   7  247.42   83.62
  -4  -4   7  285.65   82.23
  -4  -4   7  280.68   82.87
   4   4  -7  165.89   83.31
   4   4  -7  276.29   82.55
   4   4  -7  233.72   82.21
  -4  -4   8  100.81   37.77
  -4  -4   8  102.35   38.23
  -4  -4   8  130.20   37.23
  -4  -4   8  118.83   38.41
   4   4  -8   79.12   38.37
   4   4  -8  105.89   37.71
   4   4  -8  126.52   37.32
  -4  -4   9  116.01   28.73
  -4  -4   9  131.32   26.99
  -4  -4   9   36.96   27.37
   4   4  -9   23.50   26.89
   4   4  -9   27.21   26.56
   4   4  -9  107.76   27.20
  -4  -4  10  248.51   54.19
  -4  -4  10   95.84   52.55
  -4  -4  10  210.31   52.12
   4   4 -10   80.79   52.43
   4   4 -10  202.73   52.29
  -4  -4  11   61.27   31.38
  -4  -4  11   94.06   29.48
   4   4 -11   86.76   29.47
  -4  -4  12    7.45    9.39
   4   4 -12    2.97   14.33
  -4  -4  13    4.36   15.27
  -4  -4  13   10.21   10.83
   4   4 -13   -0.25   15.28
  -4  -4  14  622.18  150.22
  -4  -4  14  729.23  146.41
   4   4 -14    1.64  143.70
  -4  -3   1   34.95    1.08
  -4  -3   1   33.51   11.99
  -4  -3   1   41.41   13.84
   4   3  -1   36.03   12.20
   4   3  -1   31.11   12.52
   4   3  -1   34.45   12.90
   4   3  -1   26.33   12.00
  -4  -3   2  238.29   78.23
  -4  -3   2  214.28   77.15
  -4  -3   2  205.51   77.41
   4   3  -2  226.58   78.11
   4   3  -2  260.38   78.33
   4   3  -2  273.10   77.35
   4   3  -2  212.01   77.18
  -4  -3   3 1398.97  440.86
  -4  -3   3 1316.83  436.80
  -4  -3   3 1307.52  436.97
   4   3  -3 1304.24  440.92
   4   3  -3 1310.46  436.88
   4   3  -3 1296.93  436.83
  -4  -3   4 2234.33  720.19
  -4  -3   4 1902.54  713.76
  -4  -3   4 2296.53  713.98
   4   3  -4 2388.31  720.28
   4   3  -4 2108.31  713.84
   4   3  -4 2180.95  713.83
  -4  -3   5  862.56  299.93
  -4  -3   5  921.74  297.06
  -4  -3   5  921.75  297.23
   4   3  -5  936.53  300.11
   4   3  -5  882.73  297.09
   4   3  -5  886.26  297.08
  -4  -3   6  143.24   55.82
  -4  -3   6  136.04   55.98
  -4  -3   6  216.60   55.20
  -4  -3   6  185.66   55.51
   4   3  -6  136.98   55.91
   4   3  -6  161.46   55.22
   4   3  -6  169.65   55.14
  -4  -3   7  667.33  236.21
  -4  -3   7  803.03  236.50
  -4  -3   7  662.88  233.84
  -4  -3   7  715.98  234.09
   4   3  -7  674.77  236.40
   4   3  -7  725.30  233.96
   4   3  -7  739.47  233.95
  -4  -3   8   60.19   18.97
  -4  -3   8   43.50   19.07
  -4  -3   8   74.22   18.08
   4   3  -8   30.25   18.66
   4   3  -8   39.13   18.34
   4   3  -8   54.85   18.17
  -4  -3   9  120.90   37.92
  -4  -3   9   80.01   37.30
  -4  -3   9  144.44   37.12
  -4  -3   9  122.44   38.12
   4   3  -9   60.31   37.14
   4   3  -9  112.18   37.37
   4   3  -9  150.38   36.90
  -4  -3  10  105.97   26.44
  -4  -3  10   55.39   25.28
  -4  -3  10   82.52   24.43
  -4  -3  10   72.50   27.20
   4   3 -10   48.81   25.17
   4   3 -10   69.18   25.72
   4   3 -10   82.93   24.62
  -4  -3  11   10.01   15.01
  -4  -3  11    2.89    6.72
  -4  -3  11   12.84    8.17
   4   3 -11    2.20    5.85
   4   3 -11    2.66   11.49
  -4  -3  12  408.12  143.12
   4   3 -12  454.60  143.29
  -4  -3  13  991.76  330.13
  -4  -3  13  972.37  325.80
   4   3 -13  993.92  325.92
  -4  -3  14   10.93   14.24
   4   3 -14   -2.26   18.38
  -4  -2   1  739.45  262.80
  -4  -2   1  803.84  260.26
  -4  -2   1  864.29  260.42
   4   2  -1  872.45  262.73
   4   2  -1  776.89  262.84
   4   2  -1  722.60  260.26
   4   2  -1  744.01  260.26
  -4  -2   2 2734.34  921.42
  -4  -2   2 2880.25  913.39
  -4  -2   2 3511.19  913.56
   4   2  -2 2578.32  921.31
   4   2  -2 2543.83  921.40
   4   2  -2 2687.91  913.37
   4   2  -2 2681.69  913.38
  -4  -2   3  112.94   24.43
  -4  -2   3   37.59   24.27
   4   2  -3   71.74   24.31
   4   2  -3   59.39   24.55
   4   2  -3   32.16   24.20
   4   2  -3  102.39   24.40
  -4  -2   4 2158.25  826.64
  -4  -2   4 2720.60  819.48
  -4  -2   4 2430.51  819.53
   4   2  -4 2451.88  826.70
   4   2  -4 2588.82  819.50
   4   2  -4 2499.06  819.48
  -4  -2   5   14.37    7.24
  -4  -2   5   18.94    7.36
  -4  -2   5   15.17    8.05
   4   2  -5   17.36    8.28
   4   2  -5   25.37    7.96
   4   2  -5   16.38    7.50
  -4  -2   6   17.44    7.54
  -4  -2   6   16.52    7.52
  -4  -2   6   18.90    8.64
   4   2  -6   15.40    7.26
   4   2  -6   19.91    8.30
   4   2  -6   24.09    8.34
  -4  -2   7   79.68   23.50
  -4  -2   7   86.73   23.02
  -4  -2   7   65.01   23.92
   4   2  -7   46.00   23.43
   4   2  -7   61.21   23.30
   4   2  -7   63.82   22.90
  -4  -2   8  172.15   61.35
  -4  -2   8  144.65   61.14
  -4  -2   8  183.04   60.33
  -4  -2   8  249.07   61.04
   4   2  -8  161.28   60.54
   4   2  -8  202.20   60.42
  -4  -2   9  158.27   44.72
  -4  -2   9  109.36   43.86
  -4  -2   9  156.59   43.31
  -4  -2   9  175.64   44.64
   4   2  -9   81.75   43.56
  -4  -2  10   25.39   12.19
  -4  -2  10   14.96    8.81
  -4  -2  10   23.73    8.70
   4   2 -10    7.10    8.24
   4   2 -10   31.57   11.35
  -4  -2  11  268.00   66.23
  -4  -2  11  175.97   66.07
  -4  -2  11  203.70   64.49
   4   2 -11  149.97   65.38
  -4  -2  12  277.51  103.40
  -4  -2  12  325.71  102.15
  -4  -2  13   -2.49   15.92
   4   2 -13    6.26   13.73
  -4  -1   1 4883.30 1648.87
  -4  -1   1 6034.40 1634.85
  -4  -1   1 5235.34 1634.87
   4   1  -1 4513.45 1648.81
   4   1  -1 4296.93 1648.85
   4   1  -1 4817.31 1634.84
   4   1  -1 4877.55 1634.80
  -4  -1   2  204.31   45.18
  -4  -1   2  132.04   44.43
  -4  -1   2  110.80   44.48
   4   1  -2   98.56   44.93
   4   1  -2  103.49   45.03
   4   1  -2  158.20   44.49
   4   1  -2  137.88   44.44
  -4  -1   3  824.56  255.79
  -4  -1   3  742.08  253.35
  -4  -1   3  777.73  253.41
   4   1  -3  734.76  255.72
   4   1  -3  831.50  253.39
   4   1  -3  710.56  253.34
  -4  -1   4  682.93  283.19
  -4  -1   4  871.23  280.60
  -4  -1   4  829.51  280.64
   4   1  -4  944.10  283.45
   4   1  -4  857.55  280.60
   4   1  -4  930.69  280.61
  -4  -1   5  403.16  165.64
  -4  -1   5  561.82  164.00
  -4  -1   5  574.47  164.10
   4   1  -5  385.05  165.59
   4   1  -5  542.00  164.01
   4   1  -5  475.54  163.94
  -4  -1   6  138.48   41.50
  -4  -1   6  167.96   41.85
   4   1  -6   73.39   41.85
   4   1  -6  142.43   41.62
   4   1  -6  126.28   41.49
  -4  -1   7   25.05    9.54
  -4  -1   7   23.12    9.24
  -4  -1   7   24.21   10.09
   4   1  -7   20.79    9.24
   4   1  -7   32.70   10.12
   4   1  -7   26.83    9.34
  -4  -1   8  620.44  207.72
  -4  -1   8  554.39  207.51
  -4  -1   8  620.58  205.56
  -4  -1   8  719.80  205.87
   4   1  -8  474.17  207.36
   4   1  -8  693.66  205.75
   4   1  -8  782.98  205.69
  -4  -1   9    4.92    5.96
  -4  -1   9    0.73    5.71
  -4  -1   9    5.12    8.43
   4   1  -9    4.04    4.82
   4   1  -9    8.61    8.84
   4   1  -9    1.28    4.82
  -4  -1  10  473.50  145.69
  -4  -1  10  351.11  145.22
  -4  -1  10  522.28  143.88
  -4  -1  10  424.58  144.27
   4   1 -10  355.54  145.16
   4   1 -10  480.71  143.88
  -4  -1  11 2480.26  772.54
  -4  -1  11 2232.06  765.34
   4   1 -11 2301.22  765.32
  -4  -1  12   13.70   17.19
  -4  -1  12   16.60   14.63
   4   1 -12   17.37   13.14
  -4  -1  13   33.01   22.43
   4   1 -13   25.64   13.60
  -4   0   1 1330.75  509.58
  -4   0   1 1858.82  505.03
  -4   0   1 1363.63  504.98
   4   0  -1 1224.64  509.47
   4   0  -1 1164.54  509.49
   4   0  -1 1541.88  504.99
   4   0  -1 2161.06  505.09
  -4   0   2  116.12   41.28
  -4   0   2  118.57   40.69
  -4   0   2  129.58   40.71
   4   0  -2  121.90   41.18
   4   0  -2  119.16   41.27
   4   0  -2  127.22   40.68
   4   0  -2  123.99   40.70
  -4   0   3  100.09   39.12
  -4   0   3  109.86   38.59
  -4   0   3  125.68   38.64
   4   0  -3  109.65   39.04
   4   0  -3  110.37   39.17
   4   0  -3  122.37   38.61
   4   0  -3  131.92   38.65
  -4   0   4   65.65   21.18
  -4   0   4   56.40   21.16
   4   0  -4   65.33   21.10
   4   0  -4   63.10   21.23
  -4   0   5  621.83  219.68
  -4   0   5  650.69  219.72
   4   0  -5  687.57  219.73
   4   0  -5  711.75  219.74
  -4   0   6   21.07    8.16
  -4   0   6   21.62    8.94
   4   0  -6   22.54    8.78
   4   0  -6   20.67    7.92
  -4   0   7   74.88   30.28
  -4   0   7   76.01   30.09
  -4   0   7   77.74   29.68
  -4   0   7  100.84   30.15
   4   0  -7   79.73   30.03
   4   0  -7  123.75   29.99
   4   0  -7   89.64   29.66
  -4   0   8   14.49    8.09
  -4   0   8   13.29    6.64
  -4   0   8   27.06    8.33
   4   0  -8   12.31    6.63
   4   0  -8   15.93    7.74
   4   0  -8   13.31    7.39
  -4   0   9   82.67   31.35
  -4   0   9   91.31   30.67
  -4   0   9   74.60   31.66
   4   0  -9   79.70   31.21
   4   0  -9   80.17   31.73
   4   0  -9  120.81   31.00
   4   0  -9   92.97   30.45
  -4   0  10 1525.30  547.76
  -4   0  10 1532.32  547.86
  -4   0  10 2019.11  542.89
  -4   0  10 1106.64  542.93
   4   0 -10 1435.88  547.75
   4   0 -10 1665.17  547.92
   4   0 -10 1879.32  543.04
   4   0 -10 1659.48  542.71
  -4   0  11   54.71   22.70
  -4   0  11   45.49   23.37
  -4   0  11   55.02   22.06
   4   0 -11   59.21   24.97
   4   0 -11   74.83   22.15
  -4   0  12  548.56  232.09
   4   0 -12  957.51  236.16
   4   0 -12  744.81  232.24
  -4   0  13   73.88   32.22
  -4   1   1  823.05  283.60
  -4   1   1  955.25  283.74
  -4   1   1  821.97  281.02
   4  -1  -1  809.97  283.64
   4  -1  -1  796.63  283.68
   4  -1  -1  842.58  281.03
   4  -1  -1  922.04  281.03
  -4   1   2  177.92   50.77
  -4   1   2  145.14   50.72
   4  -1  -2  148.54   51.34
   4  -1  -2  150.19   50.71
   4  -1  -2  145.06   50.70
  -4   1   3  132.08   39.52
  -4   1   3  118.13   39.49
   4  -1  -3  108.12   39.44
   4  -1  -3  118.43   39.47
  -4   1   4  143.22   45.49
  -4   1   4  143.16   45.50
   4  -1  -4  133.55   45.45
   4  -1  -4  129.28   45.49
  -4   1   5 1165.10  414.49
  -4   1   5 1184.65  414.52
   4  -1  -5 1193.25  414.51
   4  -1  -5 1478.37  414.56
  -4   1   6  168.91   61.18
  -4   1   6  155.94   61.15
   4  -1  -6  207.44   61.21
   4  -1  -6  201.11   61.15
  -4   1   7  206.14   77.85
  -4   1   7  214.46   77.82
  -4   1   7  270.87   77.05
   4  -1  -7  231.62   77.05
  -4   1   8  779.93  283.80
  -4   1   8  832.80  283.85
  -4   1   8  829.32  281.11
  -4   1   8  941.00  281.38
   4  -1  -8  805.55  283.91
   4  -1  -8 1030.79  281.27
   4  -1  -8  777.41  281.01
  -4   1   9  203.88   72.42
  -4   1   9  141.66   72.26
  -4   1   9  265.84   71.67
  -4   1   9  240.14   71.84
   4  -1  -9  222.39   72.80
   4  -1  -9  180.49   71.61
   4  -1  -9  223.49   71.42
  -4   1  10   50.66   18.36
  -4   1  10   29.91   17.87
  -4   1  10   44.76   17.32
  -4   1  10   48.34   22.63
   4  -1 -10   45.86   19.63
   4  -1 -10   38.59   19.44
   4  -1 -10   53.41   17.38
  -4   1  11  365.87  143.15
   4  -1 -11  586.56  146.11
  -4   1  12   60.88   22.67
  -4   1  12   17.26   17.53
   4  -1 -12   70.80   21.77
  -4   2   1   42.52   14.17
  -4   2   1   37.71   14.44
  -4   2   1   44.96   13.97
  -4   2   1   37.81   14.14
   4  -2  -1   40.49   14.35
   4  -2  -1   40.27   14.26
   4  -2  -1   40.21   14.05
   4  -2  -1   43.55   13.93
  -4   2   2 2666.99  889.28
  -4   2   2 2766.32  889.31
   4  -2  -2 2727.52  889.28
   4  -2  -2 2648.27  889.25
  -4   2   3   43.56   14.50
  -4   2   3   36.83   14.58
   4  -2  -3   46.42   14.56
   4  -2  -3   43.54   14.47
  -4   2   4  464.26  159.75
  -4   2   4  501.59  159.77
   4  -2  -4  494.79  159.76
   4  -2  -4  473.91  159.72
  -4   2   5  819.76  291.40
  -4   2   5  944.37  291.42
   4  -2  -5  874.63  291.40
   4  -2  -5  885.59  291.35
  -4   2   6  266.79   84.35
  -4   2   6  232.46   84.28
   4  -2  -6  256.89   84.28
   4  -2  -6  260.11   84.24
  -4   2   7 1041.35  393.79
  -4   2   7 1317.70  390.48
   4  -2  -7 1043.22  393.82
   4  -2  -7 1602.98  390.55
   4  -2  -7 1001.62  390.23
  -4   2   8  897.95  314.54
  -4   2   8 1014.84  311.70
  -4   2   8  921.01  311.83
   4  -2  -8  874.58  314.56
   4  -2  -8 1014.63  311.72
   4  -2  -8  934.55  311.62
  -4   2   9   42.55   15.33
  -4   2   9   30.61   14.61
  -4   2   9   39.99   17.27
   4  -2  -9   45.78   16.43
  -4   2  10  275.19   86.29
  -4   2  10  211.30   86.97
  -4   2  10  240.63   84.94
   4  -2 -10  282.60   86.74
   4  -2 -10  255.89   84.75
  -4   2  11  234.61   73.61
  -4   2  11  168.64   72.41
   4  -2 -11  248.79   73.81
  -4   2  12  104.63   43.34
   4  -2 -12  120.49   45.71
  -4   3   1   27.82   11.76
  -4   3   1   42.70   12.01
   4  -3  -1   31.95   12.51
   4  -3  -1   37.38   11.98
   4  -3  -1   34.33   11.90
   4  -3  -1   31.90   11.70
  -4   3   2   29.48   12.15
  -4   3   2   33.26   12.02
  -4   3   2   36.79   12.10
   4  -3  -2   33.80   12.23
   4  -3  -2   29.56   12.34
   4  -3  -2   46.37   12.17
   4  -3  -2   31.39   11.98
  -4   3   3    4.67    2.40
  -4   3   3    6.58    3.37
  -4   3   3    5.81    3.18
   4  -3  -3    5.38    3.27
   4  -3  -3    5.37    3.16
  -4   3   4    0.68    2.90
  -4   3   4    0.94    2.91
  -4   3   4    5.65    3.83
   4  -3  -4    2.14    3.29
   4  -3  -4    2.22    2.99
  -4   3   5  467.49  170.78
  -4   3   5  548.16  169.09
  -4   3   5  472.37  169.02
   4  -3  -5  565.93  169.04
   4  -3  -5  491.74  168.97
  -4   3   6   97.69   35.73
  -4   3   6  112.29   36.11
  -4   3   6   96.27   35.43
  -4   3   6  103.46   35.44
   4  -3  -6  103.20   35.86
   4  -3  -6  114.84   35.56
   4  -3  -6  114.02   35.35
  -4   3   7 1119.32  428.48
  -4   3   7 1245.01  428.62
   4  -3  -7 1262.25  432.38
   4  -3  -7 1559.98  428.62
   4  -3  -7 1304.41  428.47
  -4   3   8   85.29   31.76
  -4   3   8   98.84   32.76
  -4   3   8   74.65   31.40
  -4   3   8  102.57   31.84
   4  -3  -8   93.59   32.57
   4  -3  -8  103.64   31.25
  -4   3   9 1949.69  725.47
  -4   3   9 2262.14  726.05
   4  -3  -9 2924.39  732.37
   4  -3  -9 1786.32  725.65
  -4   3  10   21.00    9.68
   4  -3 -10   19.98   11.03
  -4   3  11   75.65   22.01
  -4   3  11   21.72   22.18
   4  -3 -11   37.09   18.23
  -4   4   1  152.56   58.52
  -4   4   1  177.29   57.59
  -4   4   1  181.04   57.53
   4  -4  -1  152.75   58.43
   4  -4  -1  161.82   58.61
   4  -4  -1  159.77   57.54
   4  -4  -1  200.70   57.55
  -4   4   2 1047.63  466.32
  -4   4   2 1488.88  462.18
  -4   4   2 1555.64  462.13
   4  -4  -2 1376.11  466.30
   4  -4  -2 1163.72  466.44
   4  -4  -2 1389.21  462.12
   4  -4  -2 1536.00  462.11
  -4   4   3  823.26  328.18
  -4   4   3  863.97  328.44
  -4   4   3  960.29  325.29
  -4   4   3 1089.77  325.35
   4  -4  -3  834.38  328.44
   4  -4  -3 1074.05  325.32
   4  -4  -3 1116.17  325.27
  -4   4   4  370.95  123.85
  -4   4   4  349.56  122.30
  -4   4   4  379.28  122.28
   4  -4  -4  361.90  123.54
   4  -4  -4  363.96  122.29
   4  -4  -4  385.92  122.26
  -4   4   5   80.23   25.01
  -4   4   5   85.03   25.71
  -4   4   5   70.58   24.70
  -4   4   5   67.03   24.75
   4  -4  -5   87.06   25.24
   4  -4  -5   70.07   24.76
   4  -4  -5   60.26   24.53
  -4   4   6   14.16    9.26
  -4   4   6   20.00   10.49
  -4   4   6   48.12    9.47
  -4   4   6   18.14    9.78
   4  -4  -6   15.68    9.50
   4  -4  -6   17.22    9.09
   4  -4  -6   24.82    8.70
  -4   4   7   22.96    9.38
  -4   4   7   23.48   11.86
  -4   4   7   20.37   10.50
   4  -4  -7   15.48    9.38
   4  -4  -7   28.07    8.86
  -4   4   8 2047.89  699.34
  -4   4   8 2146.20  700.08
  -4   4   8 2129.96  693.64
   4  -4  -8 2101.29  699.44
   4  -4  -8 2113.29  693.49
   4  -4  -8 2114.09  693.26
  -4   4   9   95.34   34.82
  -4   4   9  103.88   35.13
   4  -4  -9  102.17   34.31
  -4   4  10   60.70   49.34
   4  -4 -10  223.03   50.41
   4  -4 -10  111.57   47.64
  -4   5   1  271.70   76.13
  -4   5   1  234.09   76.00
   4  -5  -1  216.80   77.08
   4  -5  -1  222.57   77.38
   4  -5  -1  215.67   76.08
   4  -5  -1  215.74   75.98
  -4   5   2   18.67    8.59
  -4   5   2   22.37    7.65
  -4   5   2   20.68    7.50
   4  -5  -2   21.23    7.71
   4  -5  -2   17.80    8.80
   4  -5  -2   19.16    7.71
   4  -5  -2   18.11    7.25
  -4   5   3  288.14  108.89
  -4   5   3  350.73  108.95
   4  -5  -3  288.17  110.12
   4  -5  -3  386.94  109.00
   4  -5  -3  326.11  108.85
  -4   5   4  102.93   35.78
  -4   5   4  100.78   36.25
  -4   5   4  110.45   35.44
  -4   5   4  103.99   35.63
   4  -5  -4  109.38   35.90
   4  -5  -4  104.22   35.43
  -4   5   5  530.98  177.73
  -4   5   5  515.92  178.07
  -4   5   5  461.27  175.98
  -4   5   5  528.42  176.05
   4  -5  -5  597.71  177.88
   4  -5  -5  466.05  175.95
   4  -5  -5  617.43  176.03
  -4   5   6   59.75   21.08
  -4   5   6   60.38   22.83
  -4   5   6   75.29   21.11
  -4   5   6   58.73   21.74
   4  -5  -6   58.28   21.11
   4  -5  -6   50.09   20.46
  -4   5   7  830.63  254.86
  -4   5   7  691.80  255.57
  -4   5   7  761.77  252.60
  -4   5   7  632.10  252.53
   4  -5  -7  896.26  255.08
   4  -5  -7  924.27  252.55
   4  -5  -7  569.33  252.33
  -4   5   8  319.05   87.92
  -4   5   8  242.48   87.40
   4  -5  -8  282.46   88.03
   4  -5  -8  197.08   86.60
  -4   5   9   38.59   17.68
   4  -5  -9   43.67   18.13
  -4   5  10    7.07   11.45
  -4   6   1   14.55    8.40
  -4   6   1   19.12    7.15
  -4   6   1   13.73    7.19
   4  -6  -1   19.56    7.35
   4  -6  -1   13.21    8.99
   4  -6  -1   17.70    7.71
   4  -6  -1   19.27    6.57
  -4   6   2   85.66   34.63
  -4   6   2  106.05   33.33
  -4   6   2   94.66   33.17
   4  -6  -2  101.30   34.03
   4  -6  -2  109.41   34.94
   4  -6  -2   99.56   33.40
   4  -6  -2   99.60   33.11
  -4   6   3 1365.04  404.17
  -4   6   3 1224.17  404.50
  -4   6   3 1185.26  400.48
  -4   6   3  981.37  400.37
   4  -6  -3 1310.93  404.25
   4  -6  -3 1273.87  400.51
  -4   6   4 1480.60  550.61
  -4   6   4 1675.11  545.48
  -4   6   4 1532.02  545.41
   4  -6  -4 1969.14  550.56
   4  -6  -4 1725.97  545.40
   4  -6  -4 1529.46  545.40
  -4   6   5   46.31   24.64
  -4   6   5   69.73   23.24
  -4   6   5   61.27   24.32
   4  -6  -5   83.29   24.20
   4  -6  -5   90.42   23.06
   4  -6  -5   44.17   22.75
  -4   6   6 2481.79  835.64
  -4   6   6 2359.88  828.57
   4  -6  -6 2812.61  835.86
   4  -6  -6 2382.41  828.41
  -4   6   7  365.38  119.25
  -4   6   7  442.43  118.93
   4  -6  -7  327.07  119.41
   4  -6  -7  324.59  117.99
  -4   6   8   19.95   11.04
  -4   6   8   25.28   22.08
   4  -6  -8   22.08   14.49
   4  -6  -8   14.87   13.31
  -4   6   9    4.16   32.63
  -4   7   1   11.59   10.85
  -4   7   1   23.00    8.32
  -4   7   1   17.82    8.53
   4  -7  -1   21.11    8.72
   4  -7  -1   11.33   10.44
   4  -7  -1   17.93    7.85
   4  -7  -1   14.75    8.22
  -4   7   2  674.10  223.02
  -4   7   2  745.30  220.67
  -4   7   2  577.03  220.43
   4  -7  -2  735.23  222.93
   4  -7  -2  729.96  223.35
   4  -7  -2  667.43  220.47
   4  -7  -2  625.41  220.57
  -4   7   3  259.62   72.55
  -4   7   3  167.19   72.99
  -4   7   3  245.20   71.68
  -4   7   3  174.84   71.41
   4  -7  -3  231.02   71.45
   4  -7  -3  204.61   71.57
  -4   7   4  150.07   39.38
  -4   7   4   86.67   39.89
  -4   7   4  136.67   38.53
  -4   7   4   91.54   38.38
   4  -7  -4  153.37   39.61
   4  -7  -4   95.49   37.78
   4  -7  -4   86.88   38.51
  -4   7   5 2414.88  811.22
  -4   7   5 2856.54  804.51
   4  -7  -5 2438.56  811.30
   4  -7  -5 2234.59  803.99
  -4   7   6  124.97   42.96
  -4   7   6  121.71   43.47
   4  -7  -6  129.43   43.28
   4  -7  -6  118.41   42.47
  -4   7   7  187.38   63.23
  -4   7   7  199.50   66.60
   4  -7  -7  177.62   63.70
   4  -7  -7  185.24   63.96
  -4   7   8   54.70   38.25
   4  -7  -8   -2.65   19.62
  -4   8   1   70.61   25.59
  -4   8   1   79.21   24.06
  -4   8   1   59.94   23.50
   4  -8  -1   84.44   24.53
   4  -8  -1   75.29   26.11
   4  -8  -1   66.52   23.16
   4  -8  -1   52.66   23.58
  -4   8   2  490.96  212.45
  -4   8   2  808.76  210.37
  -4   8   2  532.99  209.86
   4  -8  -2  810.86  212.59
   4  -8  -2  642.54  213.03
   4  -8  -2  716.56  209.95
   4  -8  -2  500.61  209.97
  -4   8   3  105.48   40.43
   4  -8  -3  140.08   41.50
   4  -8  -3  110.70   39.59
  -4   8   4  333.18  112.02
  -4   8   4  324.51  111.16
   4  -8  -4  342.67  112.70
   4  -8  -4  328.27  110.82
  -4   8   5   37.41   14.39
   4  -8  -5   33.05   17.15
   4  -8  -5   25.14   15.55
  -4   8   6  229.09   39.08
   4  -8  -6   38.00   36.45
   4  -8  -6   -5.32   36.11
  -4   8   7  138.33   27.98
  -4   8   7  160.98   42.09
   4  -8  -7   -1.56   25.04
   4  -8  -7   -0.21   28.96
  -4   9   1 4038.61 1304.47
   4  -9  -1 4106.63 1315.88
   4  -9  -1 3795.62 1304.14
   4  -9  -2   78.46   34.59
   4  -9  -2  111.15   34.24
  -4   9   3 1344.07  403.64
  -4   9   3 1141.36  399.83
   4  -9  -3 1210.72  403.59
   4  -9  -3 1146.47  399.59
  -4   9   4  626.72  189.91
  -4   9   4  594.46  188.77
   4  -9  -4  544.84  190.03
   4  -9  -4  510.08  187.56
  -4   9   5  207.33   36.98
  -4   9   5  198.50   41.37
   4  -9  -5    3.19   35.64
   4  -9  -5   -4.32   34.18
  -4   9   6   34.43   19.96
  -4   9   6   46.37   35.20
   4  -9  -6    7.74   15.13
   4  -9  -6    7.19   23.38
  -4  10   1   -0.45   15.25
   4 -10  -1    6.63   13.56
   4 -10  -1    0.98    8.08
  -4  10   2 1360.22  418.68
  -4  10   2  948.52  414.10
   4 -10  -2 1213.57  418.85
   4 -10  -2 1386.77  413.99
  -4  10   3  149.43   38.19
  -4  10   3  143.40   42.05
   4 -10  -3    2.22   36.41
   4 -10  -3  103.71   35.58
  -4  10   4  717.42  114.99
  -4  10   4  870.38  119.65
   4 -10  -4   -3.61  111.96
   4 -10  -4   -0.05  110.50
  -4  10   5   14.07   20.77
  -4  10   5   45.84   47.34
   4 -10  -5   -0.14   17.59
   4 -10  -5   13.67   29.13
  -4  11   1   66.50   28.33
  -4  11   1   58.80   26.17
   4 -11  -1   35.58   24.78
   4 -11  -1   42.30   20.03
  -4  11   2  275.35   45.58
  -4  11   2  228.61   50.68
   4 -11  -2    4.19   46.39
   4 -11  -2    2.10   38.45
  -4  11   3  469.28   83.91
  -4  11   3  631.20   91.04
   4 -11  -3   -4.08   80.79
   4 -11  -3    6.17   80.16
  -4  12   1   40.74   30.85
  -4  12   1   20.25   32.62
   4 -12  -1    8.30   28.25
   4 -12  -1    8.21   20.75
  -4  12   2  332.79   75.30
  -4  12   2  322.10   85.40
   4 -12  -2    2.43   71.38
  -3 -12   7  253.75  119.00
  -3 -12   7  396.40  113.96
   3  12  -7  312.56  116.33
  -3 -12   8   21.13   35.35
  -3 -12   8   20.94   20.23
  -3 -12   9   -1.33   22.39
   3  12  -9   10.21   32.54
   3  11  -2   67.84   10.65
  -3 -11   2  109.28   35.52
  -3 -11   3    8.12   23.70
  -3 -11   3    8.70   22.33
   3  11  -3    2.99   20.58
   3  11  -3    6.28   38.26
  -3 -11   4  403.74   85.11
  -3 -11   4    0.99   79.22
   3  11  -4  354.97   85.76
  -3 -11   5  181.85   75.44
  -3 -11   5  223.96   71.81
   3  11  -5  198.48   76.27
   3  11  -5  217.34   77.50
  -3 -11   6   50.49   29.46
  -3 -11   6   44.09   20.99
   3  11  -6   20.51   33.34
  -3 -11   7  137.89   59.51
  -3 -11   7  158.35   52.74
   3  11  -7  143.16   59.01
  -3 -11   8   36.88   32.15
  -3 -11   8   25.56   18.74
   3  11  -8   28.70   31.60
  -3 -11   9  208.14   80.63
  -3 -11   9  222.08   74.67
   3  11  -9  215.39   79.41
  -3 -11  10  316.82  132.74
  -3 -11  10  418.05  125.79
   3  11 -10  351.69  128.38
  -3 -11  11   68.37   56.14
  -3 -11  11  129.46   43.18
   3  11 -11   97.55   49.09
  -3 -11  12  151.54   53.73
   3  11 -12  126.23   58.33
  -3 -10   1  644.52  173.27
  -3 -10   1   -0.86  170.12
   3  10  -1  549.60  173.00
   3  10  -1  887.70  178.34
  -3 -10   2  237.01   68.32
  -3 -10   2    6.67   65.60
   3  10  -2  247.11   67.95
   3  10  -2  295.71   74.03
  -3 -10   3  998.40  355.74
  -3 -10   3 1265.08  352.07
   3  10  -3  923.47  355.65
   3  10  -3 1006.26  353.09
  -3 -10   4  373.21   42.19
  -3 -10   4  297.60  116.31
   3  10  -4  342.10  119.32
   3  10  -4  399.71  118.96
  -3 -10   5   94.68   38.71
  -3 -10   5   86.25   35.19
   3  10  -5  104.51   39.56
  -3 -10   6  173.19   60.99
  -3 -10   6  153.88   56.42
   3  10  -6  166.32   61.33
  -3 -10   7  784.95  236.24
  -3 -10   7  536.50  231.84
   3  10  -7  866.11  233.54
  -3 -10   8  263.98   99.93
  -3 -10   8  320.21   96.67
   3  10  -8  258.69   98.99
  -3 -10   9  110.94   41.97
  -3 -10   9   84.81   36.07
   3  10  -9  108.62   42.42
  -3 -10  10  278.31   95.75
  -3 -10  10  249.92   90.09
   3  10 -10  276.05   92.87
  -3 -10  11   43.11   35.92
  -3 -10  11   61.99   24.86
   3  10 -11   42.74   30.71
  -3 -10  12    0.31   33.27
  -3 -10  12   -2.95   16.49
   3  10 -12    2.20   24.01
  -3 -10  13  582.69  116.37
   3  10 -13   -1.69  115.48
  -3  -9   1  114.82   27.17
  -3  -9   1   -0.79   28.28
   3   9  -1   49.08   25.57
   3   9  -1   81.54   35.54
  -3  -9   2 1107.20  381.12
  -3  -9   2 1150.78  377.17
   3   9  -2 1112.17  381.02
   3   9  -2 1202.16  378.51
  -3  -9   3  108.53   10.77
   3   9  -3  113.40   12.02
  -3  -9   3  102.35   38.21
   3   9  -3  100.34   40.96
  -3  -9   4  295.82  124.88
  -3  -9   4  303.79  122.69
   3   9  -4  539.84  124.52
  -3  -9   5   97.77   11.10
  -3  -9   5   74.57   33.89
   3   9  -5  119.41   36.91
  -3  -9   6   69.63   30.46
  -3  -9   6   68.69   26.53
   3   9  -6   72.35   29.47
  -3  -9   7   -2.22   15.93
  -3  -9   7    1.20   11.75
   3   9  -7   -4.14   17.01
  -3  -9   8    3.43   16.74
  -3  -9   8    3.58   10.19
   3   9  -8   -2.79   20.03
  -3  -9   9   46.66   27.76
  -3  -9   9   69.51   23.62
   3   9  -9   57.81   29.52
  -3  -9  10  665.30  236.40
  -3  -9  10  711.54  232.61
   3   9 -10  718.80  233.52
  -3  -9  11  496.03  160.76
  -3  -9  11  464.94  156.67
   3   9 -11  455.25  157.72
  -3  -9  12  822.81  259.92
  -3  -9  12  753.64  254.86
   3   9 -12  745.83  255.51
  -3  -9  13   37.07   34.06
  -3  -9  13   47.13   22.91
   3   9 -13    1.26   23.53
  -3  -8   1 1396.17  194.13
   3   8  -1 1395.43  194.48
  -3  -8   1 1414.77  471.00
   3   8  -1 1523.33  471.88
  -3  -8   2   24.54   16.95
  -3  -8   2   28.36   14.93
   3   8  -2   29.25   17.51
   3   8  -2   35.56   22.13
  -3  -8   3  791.50  313.83
  -3  -8   3 1139.93  310.78
   3   8  -3  822.84  310.87
  -3  -8   4   97.37    8.15
  -3  -8   4   71.80   29.42
   3   8  -4   81.63   31.32
  -3  -8   5  159.44   56.00
  -3  -8   5  160.83   53.99
   3   8  -5  155.86   54.94
  -3  -8   6  237.24   93.16
  -3  -8   6  283.67   91.38
   3   8  -6  294.22   92.12
  -3  -8   7  117.60   40.50
  -3  -8   7  110.31   38.36
   3   8  -7  103.74   39.89
  -3  -8   8  862.93  299.52
  -3  -8   8  910.84  295.98
   3   8  -8  903.43  296.59
  -3  -8   9  958.71  291.17
  -3  -8   9  917.40  287.52
   3   8  -9  722.29  287.86
  -3  -8  10   50.18   25.32
  -3  -8  10   36.52   20.47
   3   8 -10   60.59   24.12
  -3  -8  11 4049.61 1224.07
  -3  -8  11 3963.21 1212.51
   3   8 -11 2965.32 1212.55
  -3  -8  12  239.87   82.05
  -3  -8  12  262.16   77.75
   3   8 -12  177.54   78.52
  -3  -8  13  120.54   53.54
  -3  -8  13  137.31   49.10
  -3  -8  14  124.93   40.93
  -3  -8  14   75.51   26.10
   3   8 -14   -1.70   25.86
  -3  -7   1  138.49   46.86
  -3  -7   1  115.47   45.15
   3   7  -1  166.42   46.68
   3   7  -1  106.98   45.84
  -3  -7   2   82.81   29.44
  -3  -7   2   94.99   27.74
   3   7  -2   75.43   29.34
   3   7  -2   60.64   28.47
  -3  -7   3    2.11    5.74
  -3  -7   3   -0.18    6.56
   3   7  -3    7.19    9.47
  -3  -7   4  234.43   62.81
  -3  -7   4  179.34   61.21
  -3  -7   4  176.71   61.86
   3   7  -4  107.96   62.28
   3   7  -4  226.84   61.78
  -3  -7   5  162.97   41.62
  -3  -7   5  147.24   40.45
  -3  -7   5   85.74   40.89
   3   7  -5   75.30   41.62
   3   7  -5   89.24   40.61
   3   7  -5  152.63   41.11
  -3  -7   6   24.93   11.64
  -3  -7   6   11.29   12.29
  -3  -7   6   29.77   10.36
   3   7  -6   16.12   12.19
   3   7  -6   29.21   12.40
  -3  -7   7  154.12   44.86
  -3  -7   7   76.82   44.72
  -3  -7   7  177.03   43.63
   3   7  -7   83.73   45.23
   3   7  -7  160.03   44.28
  -3  -7   8  481.34  182.77
  -3  -7   8  527.41  180.56
   3   7  -8  631.26  181.22
  -3  -7   9   22.25   14.71
  -3  -7   9   27.48   14.47
   3   7  -9   45.99   20.96
  -3  -7  10  745.99  240.43
  -3  -7  10  621.60  237.26
   3   7 -10  813.94  237.90
  -3  -7  11   76.77   28.23
  -3  -7  11   57.87   23.83
   3   7 -11   56.05   25.30
  -3  -7  12 1039.66  365.33
  -3  -7  12 1145.16  361.20
   3   7 -12 1067.49  361.22
  -3  -7  13   23.08   24.26
  -3  -7  13   24.08   17.04
   3   7 -13    3.15   14.97
  -3  -7  14   33.93   30.60
  -3  -7  14   30.42   19.72
   3   7 -14    4.77   16.54
  -3  -6   1  466.65  135.58
  -3  -6   1  391.48  133.82
  -3  -6   1  323.27  134.24
   3   6  -1  510.58  135.52
   3   6  -1  233.97  135.40
   3   6  -1  233.04  133.65
   3   6  -1  696.03  134.52
  -3  -6   2   82.83    5.61
  -3  -6   2   75.80   25.80
  -3  -6   2   79.57   26.38
   3   6  -2   78.12   26.09
   3   6  -2   67.77   27.01
   3   6  -2   61.94   25.80
   3   6  -2   79.83   26.39
  -3  -6   3  239.70   64.22
  -3  -6   3  183.05   62.91
  -3  -6   3  174.18   63.19
   3   6  -3  188.68   64.59
   3   6  -3  138.21   62.82
   3   6  -3  219.89   63.29
   3   6  -4  196.34   23.41
  -3  -6   4  229.57   68.03
  -3  -6   4  211.59   66.77
  -3  -6   4  180.40   66.98
   3   6  -4  158.00   66.69
   3   6  -4  226.17   67.08
  -3  -6   5  210.48   86.40
  -3  -6   5  368.78   85.33
  -3  -6   5  188.25   85.39
   3   6  -5  202.86   86.70
   3   6  -5  167.31   85.03
   3   6  -5  352.73   85.58
  -3  -6   6   61.61   18.57
  -3  -6   6   35.36   18.61
  -3  -6   6   61.18   17.13
  -3  -6   6   34.40   17.07
   3   6  -6   33.40   18.70
   3   6  -6   34.75   17.14
   3   6  -6   62.55   18.15
  -3  -6   7 1947.73  552.69
  -3  -6   7 1487.42  552.57
  -3  -6   7 2414.27  547.62
  -3  -6   7 1475.77  547.55
   3   6  -7 1024.56  552.31
   3   6  -7 1500.19  547.39
   3   6  -7 1667.23  547.50
  -3  -6   8  475.86  128.70
  -3  -6   8  274.40  128.17
  -3  -6   8  645.49  127.17
  -3  -6   8  348.69  126.99
   3   6  -8  212.16  127.99
   3   6  -8  278.16  126.66
   3   6  -8  530.87  127.19
  -3  -6   9  131.82   42.62
  -3  -6   9   85.05   41.39
  -3  -6   9  215.78   41.30
   3   6  -9   54.09   41.44
   3   6  -9  141.44   41.56
  -3  -6  10  166.74   56.23
  -3  -6  10  149.51   54.40
   3   6 -10  173.84   54.80
  -3  -6  11  198.00   73.00
  -3  -6  11  236.58   71.62
   3   6 -11  192.88   71.73
  -3  -6  12  448.32  152.04
   3   6 -12  470.27  152.61
  -3  -6  13    9.24   25.55
  -3  -6  13    8.07   14.64
  -3  -6  14   82.06   30.74
  -3  -6  14   39.54   21.29
   3   6 -14    1.47   22.62
  -3  -5   1   41.51   14.32
  -3  -5   1   42.78   13.78
  -3  -5   1   29.79   14.12
   3   5  -1   43.97   14.36
   3   5  -1   30.32   14.76
   3   5  -1   28.21   13.63
   3   5  -1   48.28   14.66
  -3  -5   2  264.30   33.85
  -3  -5   2  370.42   90.33
  -3  -5   2  214.37   90.32
   3   5  -2  278.49   91.56
   3   5  -2  221.77   90.17
   3   5  -2  247.17   90.30
  -3  -5   3   22.53    8.41
  -3  -5   3   21.10    7.28
  -3  -5   3   15.25    8.54
   3   5  -3   15.77    9.48
   3   5  -3   10.97    7.53
   3   5  -3   11.87    8.23
  -3  -5   4   12.44    6.62
  -3  -5   4   12.82    6.05
  -3  -5   4   11.86    9.12
   3   5  -4    6.84    6.96
   3   5  -4    7.87    7.52
   3   5  -4   13.37    7.56
  -3  -5   5  445.46  139.96
  -3  -5   5  424.50  138.28
  -3  -5   5  431.45  138.70
   3   5  -5  424.66  140.19
   3   5  -5  362.43  138.41
   3   5  -5  422.18  138.44
  -3  -5   6 2188.44  700.10
  -3  -5   6 1914.79  700.06
  -3  -5   6 2504.32  693.80
  -3  -5   6 2346.75  694.10
   3   5  -6 1633.26  699.98
   3   5  -6 2376.69  693.92
   3   5  -6 1748.75  693.72
  -3  -5   7    1.41    5.93
  -3  -5   7   -2.85    9.66
  -3  -5   7    4.69    5.21
  -3  -5   7    0.63    9.00
   3   5  -7    4.70    6.21
   3   5  -7    0.44    7.77
   3   5  -7    4.25    6.55
  -3  -5   8 2882.32  951.20
  -3  -5   8 2467.83  951.20
  -3  -5   8 3966.76  942.87
  -3  -5   8 2560.53  942.95
   3   5  -8 2506.92  942.76
   3   5  -8 2309.27  942.66
  -3  -5   9  302.59   74.40
  -3  -5   9  170.10   73.98
  -3  -5   9  331.14   73.04
  -3  -5   9  188.10   73.36
   3   5  -9  107.12   73.57
   3   5  -9  138.94   72.78
   3   5  -9  331.14   73.23
  -3  -5  10  836.01  183.64
  -3  -5  10  370.19  182.61
  -3  -5  10  942.71  181.63
   3   5 -10  260.34  182.46
   3   5 -10  779.47  181.56
  -3  -5  11    8.75   14.78
  -3  -5  11   12.22    9.25
   3   5 -11    6.81   10.18
  -3  -5  12    4.28    9.57
  -3  -5  13    3.70   14.88
  -3  -5  13    1.35   13.02
   3   5 -13    4.45   15.15
  -3  -5  14   19.65   19.05
  -3  -5  14    6.77   12.90
   3   5 -14    0.63   23.13
  -3  -4   1  895.84  282.56
  -3  -4   1  826.16  279.78
  -3  -4   1  803.97  279.98
   3   4  -1  854.88  282.45
   3   4  -1  876.69  282.63
   3   4  -1  844.89  279.84
   3   4  -1  807.30  279.83
  -3  -4   2   23.61    8.12
  -3  -4   2   19.64    7.59
  -3  -4   2   17.25    9.73
   3   4  -2   17.78    8.41
   3   4  -2   20.63    8.84
   3   4  -2   16.99    8.29
  -3  -4   3    1.43    4.59
  -3  -4   3    4.23    3.81
  -3  -4   3    1.26    6.83
   3   4  -3    2.34    5.29
   3   4  -3    1.50    5.60
   3   4  -3    2.18    5.13
  -3  -4   4  713.69  231.03
  -3  -4   4  658.26  228.66
  -3  -4   4  725.37  228.95
   3   4  -4  690.16  231.07
   3   4  -4  699.39  228.79
   3   4  -4  688.71  228.75
  -3  -4   5 1161.24  385.65
  -3  -4   5 1008.56  381.98
  -3  -4   5 1301.93  382.28
   3   4  -5 1162.80  385.77
   3   4  -5 1232.94  382.12
   3   4  -5 1159.73  382.07
  -3  -4   6  182.38   61.20
  -3  -4   6  179.92   61.33
  -3  -4   6  138.85   60.27
  -3  -4   6  208.87   60.77
   3   4  -6  170.58   61.29
   3   4  -6  208.86   60.50
   3   4  -6  196.05   60.44
  -3  -4   7  879.46  297.64
  -3  -4   7  846.74  297.62
  -3  -4   7  825.42  294.63
  -3  -4   7  966.70  295.01
   3   4  -7  744.92  297.51
   3   4  -7  829.71  294.81
   3   4  -7 1185.45  294.88
  -3  -4   8    0.72    5.89
  -3  -4   8    1.75    5.65
  -3  -4   8   11.12    5.06
  -3  -4   8    3.19    8.78
   3   4  -8    3.57    6.62
   3   4  -8    0.93    7.35
   3   4  -8    6.49    5.42
  -3  -4   9 2455.01  650.20
  -3  -4   9 2225.83  650.44
   3   4  -9 1187.89  655.55
   3   4  -9 2639.39  650.32
  -3  -4  10  281.08   74.29
  -3  -4  10  115.87   73.42
  -3  -4  10  327.08   72.79
  -3  -4  10  163.66   73.22
   3   4 -10  183.16   73.00
   3   4 -10  207.19   72.81
  -3  -4  11  128.49   41.45
  -3  -4  11  114.04   39.81
   3   4 -11  111.13   40.15
  -3  -4  12  686.59  226.73
  -3  -4  12  678.14  223.95
   3   4 -12  666.71  224.21
  -3  -4  13  167.94   54.26
  -3  -4  13  146.41   53.31
   3   4 -13  150.98   52.96
  -3  -4  14   99.20   28.32
  -3  -4  14   44.49   26.45
   3   4 -14   18.55   26.72
  -3  -3   1  770.54  266.32
  -3  -3   1  877.39  263.76
  -3  -3   1  878.52  263.93
   3   3  -1  756.29  266.22
   3   3  -1  803.86  266.41
   3   3  -1  886.32  263.82
   3   3  -1  671.56  263.71
  -3  -3   2    1.54    0.90
  -3  -3   2    5.18    4.10
  -3  -3   2    2.47    5.80
   3   3  -2    2.42    3.10
   3   3  -2    2.51    5.09
   3   3  -2    5.22    4.28
  -3  -3   3 1116.96  399.40
  -3  -3   3 1354.17  395.80
  -3  -3   3  868.28  395.77
   3   3  -3 1015.50  399.46
   3   3  -3 1419.92  395.87
   3   3  -3 1278.57  395.80
  -3  -3   4 1856.41  622.82
  -3  -3   4 1784.95  617.25
  -3  -3   4 2015.52  617.40
   3   3  -4 2000.58  622.96
   3   3  -4 1847.82  617.29
   3   3  -4 1811.44  617.28
  -3  -3   5   10.31    6.73
  -3  -3   5   15.95    7.16
  -3  -3   5   16.41    6.51
  -3  -3   5   18.25    7.39
   3   3  -5   19.37    7.57
   3   3  -5   14.18    6.79
   3   3  -5   15.08    7.25
  -3  -3   6  103.27   36.36
  -3  -3   6  116.80   36.39
  -3  -3   6  100.36   35.61
  -3  -3   6  129.36   36.19
   3   3  -6   96.02   36.28
   3   3  -6  104.85   35.74
   3   3  -6  105.02   35.71
  -3  -3   7  140.04   39.75
  -3  -3   7   74.10   39.31
  -3  -3   7  151.18   38.92
  -3  -3   7  119.89   39.26
   3   3  -7   67.30   39.20
   3   3  -7  142.12   39.12
   3   3  -7  145.32   38.97
  -3  -3   8  874.57  248.75
  -3  -3   8  624.62  248.41
  -3  -3   8  807.03  246.15
  -3  -3   8 1008.09  246.67
   3   3  -8  511.64  248.30
   3   3  -8  851.13  246.31
   3   3  -8  824.89  246.22
  -3  -3   9  373.47  103.56
  -3  -3   9  258.57  103.15
  -3  -3   9  350.02  102.00
   3   3  -9  229.99  103.01
   3   3  -9  352.72  102.39
   3   3  -9  323.84  101.97
  -3  -3  10   86.81   19.55
  -3  -3  10   49.29   17.23
  -3  -3  10   38.31   18.75
   3   3 -10   20.38   16.73
   3   3 -10   43.42   19.75
   3   3 -10   61.56   17.49
  -3  -3  11  203.25   29.56
  -3  -3  11    8.75   24.12
  -3  -3  11   14.70   26.15
   3   3 -11    6.78   24.01
   3   3 -11   39.19   25.92
  -3  -3  12   14.76   14.28
  -3  -3  12    8.50    9.64
   3   3 -12   10.75   10.05
  -3  -3  13   33.11   19.73
  -3  -3  13   22.34   17.32
   3   3 -13   20.62   15.37
  -3  -3  14   80.19   36.20
  -3  -2   1  455.00  185.37
  -3  -2   1  821.23  183.59
  -3  -2   1  527.92  183.58
   3   2  -1  447.54  185.29
   3   2  -1  436.61  185.35
   3   2  -1  600.78  183.55
   3   2  -1  587.27  183.54
  -3  -2   2  220.99   72.43
  -3  -2   2  207.49   71.51
  -3  -2   2  206.69   71.62
   3   2  -2  217.89   72.47
   3   2  -2  232.86   71.59
   3   2  -2  209.33   71.57
  -3  -2   3 1338.36  500.60
  -3  -2   3 1479.00  496.12
  -3  -2   3 1877.85  496.28
   3   2  -3 1603.96  500.72
   3   2  -3 1467.89  496.15
   3   2  -3 1388.06  496.13
  -3  -2   4  196.60   68.13
  -3  -2   4  173.73   67.20
  -3  -2   4  214.11   67.40
   3   2  -4  245.11   68.38
   3   2  -4  212.43   67.30
   3   2  -4  198.83   67.25
  -3  -2   5 4145.39 1488.41
  -3  -2   5 3956.96 1488.46
  -3  -2   5 5211.06 1475.71
  -3  -2   5 5744.19 1475.83
   3   2  -5 3181.92 1488.36
   3   2  -5 4185.88 1475.65
   3   2  -5 4838.50 1475.71
  -3  -2   6   10.43    5.13
  -3  -2   6    4.32    3.90
  -3  -2   6   13.59    5.20
  -3  -2   6    4.88    5.44
   3   2  -6    3.24    3.66
   3   2  -6    5.93    5.12
   3   2  -6    6.20    5.08
  -3  -2   7  463.30  170.61
  -3  -2   7  429.31  170.38
  -3  -2   7  525.68  168.69
  -3  -2   7  469.79  168.86
   3   2  -7  628.90  168.85
   3   2  -7  528.00  168.72
  -3  -2   8  437.13  129.51
  -3  -2   8  340.18  129.13
  -3  -2   8  405.04  127.73
  -3  -2   8  445.11  128.09
   3   2  -8  337.90  129.04
   3   2  -8  468.12  127.89
   3   2  -8  337.55  127.64
  -3  -2   9   41.50   13.17
  -3  -2   9   23.90   11.41
  -3  -2   9   32.66   11.29
  -3  -2   9   49.01   13.82
   3   2  -9   19.44   11.23
   3   2  -9   32.94   12.91
  -3  -2  10  388.32  112.45
  -3  -2  10  208.38  111.91
  -3  -2  10  508.75  111.02
  -3  -2  10  239.28  110.92
   3   2 -10  180.92  111.72
   3   2 -10  402.99  112.73
   3   2 -10  358.76  111.24
   3   2 -10  397.33  110.81
  -3  -2  11   -0.05    9.33
  -3  -2  11    6.70   11.36
  -3  -2  11    5.52    7.25
  -3  -2  11    3.05   10.74
   3   2 -11    1.05    6.24
   3   2 -11    7.88   12.49
   3   2 -11    2.62   11.80
   3   2 -11    2.92    8.26
  -3  -2  12   27.55   14.17
   3   2 -12   33.70   19.52
   3   2 -12   25.35   13.41
  -3  -2  13  141.37   42.16
   3   2 -13  200.38   45.99
   3   2 -13   48.26   38.99
  -3  -2  14   79.49   35.57
  -3  -1   1  570.88  207.42
  -3  -1   1  732.90  205.41
  -3  -1   1  628.72  205.39
   3   1  -1  567.12  207.33
   3   1  -1  551.04  207.38
   3   1  -1  591.50  205.36
   3   1  -1  734.58  205.42
  -3  -1   2  259.57  103.05
  -3  -1   2  343.25  102.00
  -3  -1   2  401.07  102.04
   3   1  -2  246.74  102.96
   3   1  -2  290.81  103.10
   3   1  -2  330.03  101.96
   3   1  -2  326.41  101.99
  -3  -1   3  584.61  208.36
  -3  -1   3  651.46  206.36
  -3  -1   3  598.55  206.37
   3   1  -3  604.66  208.46
   3   1  -3  635.84  206.35
   3   1  -3  665.30  206.38
  -3  -1   4 4663.20 1695.18
  -3  -1   4 5354.59 1695.30
  -3  -1   4 5617.10 1680.79
  -3  -1   4 5804.96 1680.83
   3   1  -4 3992.29 1695.25
   3   1  -4 4491.78 1680.75
   3   1  -4 5477.94 1680.80
  -3  -1   5  506.36  160.69
  -3  -1   5  530.74  160.81
  -3  -1   5  558.62  158.98
  -3  -1   5  465.21  158.98
   3   1  -5  448.49  160.67
   3   1  -5  463.21  158.96
   3   1  -5  406.21  158.91
  -3  -1   6 3111.89 1028.14
  -3  -1   6 2725.30 1027.92
  -3  -1   6 3224.08 1019.04
  -3  -1   6 3116.37 1019.10
   3   1  -6 2623.46 1027.81
   3   1  -6 3360.89 1019.11
   3   1  -6 3442.78 1019.06
  -3  -1   7 1361.44  417.11
  -3  -1   7 1040.66  416.87
  -3  -1   7 1243.28  413.10
  -3  -1   7 1405.86  413.26
   3   1  -7 1162.83  417.12
   3   1  -7 1335.54  413.18
   3   1  -7 1260.44  413.12
  -3  -1   8   22.25    8.85
  -3  -1   8   22.46    8.39
  -3  -1   8   20.17    7.99
  -3  -1   8   14.72    9.11
   3   1  -8   16.09    7.76
   3   1  -8   17.73    9.83
   3   1  -8   25.39    9.42
   3   1  -8   17.39    7.84
  -3  -1   9   77.95   24.39
  -3  -1   9   81.77   22.93
  -3  -1   9   60.67   24.19
   3   1  -9   47.90   23.30
   3   1  -9   76.04   23.98
   3   1  -9   61.03   23.60
  -3  -1  10  438.76  124.43
  -3  -1  10  302.95  124.04
  -3  -1  10  371.81  122.56
  -3  -1  10  420.96  123.42
   3   1 -10  289.77  123.86
   3   1 -10  376.35  124.28
   3   1 -10  353.61  122.83
   3   1 -10  439.36  122.62
  -3  -1  11   -3.33   10.14
  -3  -1  11    7.75    8.31
  -3  -1  11    7.16   10.60
   3   1 -11   -1.36   11.61
   3   1 -11    8.97   14.18
   3   1 -11    3.40    7.07
  -3  -1  12    3.26   15.51
   3   1 -12    3.83   14.36
   3   1 -12    0.22    8.75
  -3  -1  13    8.28   17.96
  -3   0   1  728.84  258.17
  -3   0   1  876.51  255.70
  -3   0   1  750.33  255.69
   3   0  -1  704.62  258.07
   3   0  -1  899.86  255.72
   3   0  -1  696.41  255.67
  -3   0   2    7.05    3.52
  -3   0   2   10.00    3.67
  -3   0   2   10.42    3.71
   3   0  -2    7.52    3.60
   3   0  -2    8.52    3.67
   3   0  -2    8.68    3.75
  -3   0   3  493.61  221.39
  -3   0   3  920.00  221.53
  -3   0   3  590.33  219.33
  -3   0   3  550.05  219.33
   3   0  -3  815.85  221.56
   3   0  -3  750.34  219.38
   3   0  -3  668.94  219.35
  -3   0   4  206.97   60.32
  -3   0   4  184.53   59.60
  -3   0   4  159.84   59.55
   3   0  -4  174.65   59.55
   3   0  -4  179.86   59.60
  -3   0   5  417.48  129.41
  -3   0   5  341.81  129.21
  -3   0   5  385.61  127.90
  -3   0   5  370.42  127.90
   3   0  -5  321.19  129.11
   3   0  -5  389.92  127.91
   3   0  -5  511.92  127.97
  -3   0   6   18.07    6.97
  -3   0   6   14.76    6.36
  -3   0   6   19.50    6.60
  -3   0   6   18.62    6.98
   3   0  -6   13.92    6.25
   3   0  -6   19.53    7.26
   3   0  -6   21.21    7.09
   3   0  -6   13.82    6.45
  -3   0   7   14.08    6.45
  -3   0   7   16.85    6.50
  -3   0   7   15.88    6.19
  -3   0   7   19.91    7.05
   3   0  -7   14.52    6.25
   3   0  -7   16.81    6.81
   3   0  -7   13.81    6.73
   3   0  -7   15.31    6.46
  -3   0   8   75.09   25.53
  -3   0   8   68.07   25.73
  -3   0   8   65.02   24.82
  -3   0   8   81.11   25.17
   3   0  -8   66.03   25.39
   3   0  -8   80.40   25.72
   3   0  -8   72.64   25.25
   3   0  -8   82.58   24.85
  -3   0   9   36.49   14.56
  -3   0   9   36.14   13.79
  -3   0   9   26.82   15.24
   3   0  -9   42.53   15.30
   3   0  -9   40.63   14.47
   3   0  -9   40.02   14.99
   3   0  -9   38.51   13.70
  -3   0  10   33.03   13.28
  -3   0  10   26.38   15.62
  -3   0  10   28.39   11.72
   3   0 -10   34.10   15.87
   3   0 -10   31.76   12.86
   3   0 -10   30.19   12.34
  -3   0  11  133.35   53.19
  -3   0  11   74.73   54.56
   3   0 -11  220.28   55.45
   3   0 -11  158.48   54.67
   3   0 -11  166.86   53.20
  -3   0  12   78.15   31.87
   3   0 -12   87.08   34.47
  -3   1   1   13.29    5.16
  -3   1   1   12.71    5.37
  -3   1   1   16.12    5.36
  -3   1   1   13.36    5.12
   3  -1  -1   12.49    5.24
   3  -1  -1   13.42    5.25
   3  -1  -1   16.27    5.09
   3  -1  -1   15.68    5.29
  -3   1   3   13.25    5.09
  -3   1   3   10.58    4.91
   3  -1  -3   12.83    5.02
   3  -1  -3   16.08    5.08
  -3   1   4   71.19   23.80
  -3   1   4   57.71   23.75
   3  -1  -4   69.74   23.76
   3  -1  -4   86.22   23.88
  -3   1   5   58.59   18.69
  -3   1   5   49.32   18.62
  -3   1   5   50.06   18.31
  -3   1   5   55.86   18.37
   3  -1  -5   44.04   18.54
   3  -1  -5   58.26   18.33
   3  -1  -5   65.15   18.32
  -3   1   6  188.90   59.19
  -3   1   6  158.86   58.39
   3  -1  -6  164.49   59.09
   3  -1  -6  199.05   59.29
  -3   1   7 1537.73  536.42
  -3   1   7 1945.87  531.71
  -3   1   7 1674.03  531.70
   3  -1  -7 1590.08  536.41
   3  -1  -7 1628.07  536.52
   3  -1  -7 1608.76  531.65
   3  -1  -7 1413.34  531.54
  -3   1   8  421.31  148.25
  -3   1   8  441.52  146.49
  -3   1   8  453.97  146.69
   3  -1  -8  455.05  148.16
   3  -1  -8  467.57  146.61
   3  -1  -8  426.06  146.45
  -3   1   9   73.15   29.28
  -3   1   9   77.30   30.05
  -3   1   9   87.54   29.13
   3  -1  -9   83.06   29.64
   3  -1  -9   94.10   29.56
   3  -1  -9   97.55   29.34
  -3   1  10  112.71   29.11
  -3   1  10   71.81   30.42
  -3   1  10   58.99   27.71
  -3   1  10   85.41   30.31
   3  -1 -10  107.76   29.10
   3  -1 -10   65.17   27.52
  -3   1  11  724.98  251.75
   3  -1 -11  781.17  251.95
  -3   1  12  626.44  220.02
   3  -1 -12  689.60  220.25
  -3   2   2    2.70    1.82
  -3   2   2    4.81    2.53
  -3   2   2    4.37    2.16
   3  -2  -2    3.55    2.46
   3  -2  -2    2.21    2.21
  -3   2   3  871.56  388.97
  -3   2   3 1138.97  385.56
  -3   2   3 1214.82  385.55
   3  -2  -3 1309.53  385.56
   3  -2  -3 1260.99  385.53
  -3   2   4  846.69  307.97
  -3   2   4  854.44  305.19
  -3   2   4 1087.71  305.23
   3  -2  -4  898.31  308.04
   3  -2  -4  926.57  305.16
  -3   2   5  266.58   92.11
  -3   2   5  278.75   91.12
  -3   2   5  293.64   91.12
   3  -2  -5  282.42   91.12
   3  -2  -5  255.73   91.07
  -3   2   6  217.51   62.06
  -3   2   6  189.57   61.08
  -3   2   6  181.66   61.11
   3  -2  -6  177.16   61.86
   3  -2  -6  216.63   61.10
   3  -2  -6  141.32   60.95
  -3   2   7   22.76    7.99
  -3   2   7   27.84    8.34
  -3   2   7   14.02    7.43
  -3   2   7   18.11    8.87
   3  -2  -7   20.84    7.97
   3  -2  -7   17.28    9.35
   3  -2  -7   18.92    7.25
  -3   2   8   24.12   10.28
  -3   2   8   25.09   10.47
  -3   2   8   27.23    9.52
  -3   2   8   30.46   11.57
   3  -2  -8   25.16    9.83
   3  -2  -8   19.56   10.38
   3  -2  -8   20.87    9.03
  -3   2   9   99.98   38.66
  -3   2   9  102.91   37.24
  -3   2   9  112.46   37.92
   3  -2  -9  139.43   38.35
   3  -2  -9  108.31   37.64
   3  -2  -9  100.33   36.99
  -3   2  10   87.94   26.59
  -3   2  10   55.62   25.85
  -3   2  10   53.34   28.53
   3  -2 -10  116.41   27.29
   3  -2 -10   53.29   25.13
   3  -2 -10   52.89   26.88
  -3   2  11  258.56   92.03
   3  -2 -11  290.08   92.37
  -3   2  12   19.60   16.89
   3  -2 -12    0.54   17.41
  -3   3   1    3.49    2.88
  -3   3   1    3.99    3.17
  -3   3   1    5.87    2.94
   3  -3  -1    6.81    3.28
   3  -3  -1    4.88    3.18
   3  -3  -1    4.73    3.13
   3  -3  -1    4.60    3.01
  -3   3   2  301.32  116.72
  -3   3   2  342.51  115.35
  -3   3   2  346.88  115.27
   3  -3  -2  293.30  116.53
   3  -3  -2  394.46  115.32
   3  -3  -2  387.55  115.34
  -3   3   3  421.38  155.13
  -3   3   3  489.38  153.49
  -3   3   3  554.19  153.48
   3  -3  -3  401.13  154.98
   3  -3  -3  439.58  153.42
   3  -3  -3  467.46  153.43
  -3   3   4  200.71   66.37
  -3   3   4  201.94   65.48
  -3   3   4  198.25   65.39
   3  -3  -4  195.54   66.27
   3  -3  -4  187.85   65.41
   3  -3  -4  203.51   65.42
  -3   3   5  196.33   72.86
  -3   3   5  258.28   73.17
  -3   3   5  258.78   72.17
  -3   3   5  270.71   72.21
   3  -3  -5  134.17   72.92
   3  -3  -5  211.17   72.04
  -3   3   6  395.73  128.85
  -3   3   6  398.10  127.54
  -3   3   6  412.78  127.56
   3  -3  -6  355.77  127.49
   3  -3  -6  373.70  127.45
  -3   3   7   26.16    9.42
  -3   3   7   21.20    9.36
  -3   3   7   18.00    9.14
   3  -3  -7   20.84    8.58
   3  -3  -7   24.78    8.65
  -3   3   8 1176.14  372.04
  -3   3   8 1234.45  372.74
  -3   3   8 1192.26  368.81
   3  -3  -8 1156.59  372.14
   3  -3  -8  940.22  368.49
  -3   3   9   39.89   17.06
  -3   3   9   36.73   19.07
   3  -3  -9   59.77   16.66
   3  -3  -9   31.37   15.26
   3  -3  -9   33.81   18.12
  -3   3  10  434.76  134.45
   3  -3 -10  361.35  134.37
  -3   3  11  346.01   67.25
   3  -3 -11    2.51   67.14
  -3   4   1   62.87   21.21
  -3   4   1   56.39   20.44
  -3   4   1   60.76   20.39
   3  -4  -1   65.27   20.86
   3  -4  -1   58.04   21.27
   3  -4  -1   58.54   20.37
   3  -4  -1   62.28   20.33
  -3   4   2  180.65   65.19
  -3   4   2  190.12   64.18
  -3   4   2  199.65   64.07
   3  -4  -2  183.87   64.94
   3  -4  -2  202.67   64.15
   3  -4  -2  195.73   64.09
  -3   4   3  326.01  111.91
  -3   4   3  343.88  110.78
  -3   4   3  354.58  110.72
   3  -4  -3  320.91  111.96
   3  -4  -3  328.00  110.69
  -3   4   4  275.33   96.85
  -3   4   4  289.46   97.09
  -3   4   4  312.27   95.85
   3  -4  -4  334.76   95.85
   3  -4  -4  250.30   95.72
  -3   4   5 1280.12  410.02
  -3   4   5 1351.84  410.36
  -3   4   5 1054.36  406.32
  -3   4   5 1248.62  406.32
   3  -4  -5 1265.57  410.14
   3  -4  -5 1157.70  406.31
   3  -4  -5 1280.78  406.34
  -3   4   6    1.89    7.72
  -3   4   6    1.34    5.29
  -3   4   6    3.64    7.55
   3  -4  -6    1.36    5.31
   3  -4  -6    0.05    4.68
   3  -4  -6    1.45    2.85
  -3   4   7   58.22   19.06
  -3   4   7   57.93   21.28
  -3   4   7   49.25   18.95
  -3   4   7   42.01   19.01
   3  -4  -7   63.17   19.79
   3  -4  -7   51.98   18.31
   3  -4  -7   43.68   18.55
  -3   4   8  666.57  182.75
  -3   4   8  586.17  183.64
  -3   4   8  522.90  181.22
   3  -4  -8  411.95  180.58
   3  -4  -8  586.22  181.14
  -3   4   9  273.91  130.01
   3  -4  -9  514.20  130.79
   3  -4  -9  286.27  129.28
  -3   4  10   19.85   14.22
  -3   4  11  331.93   64.43
   3  -4 -11   -2.13   61.92
  -3   5   1  115.43   40.32
  -3   5   1  141.59   39.39
  -3   5   1  118.03   39.27
   3  -5  -1  114.12   40.00
   3  -5  -1  113.10   39.38
   3  -5  -1  110.44   39.19
  -3   5   2  197.66   67.26
  -3   5   2  211.53   66.18
  -3   5   2  205.78   66.13
   3  -5  -2  196.30   67.06
   3  -5  -2  200.14   66.21
   3  -5  -2  189.39   66.04
  -3   5   3  255.98   84.81
  -3   5   3  272.93   85.23
  -3   5   3  215.57   83.72
   3  -5  -3  251.03   84.87
   3  -5  -3  288.63   83.88
  -3   5   4    2.16    2.96
  -3   5   4    0.83    6.00
  -3   5   4    1.36    4.19
  -3   5   4    4.70    4.14
   3  -5  -4    2.57    3.45
   3  -5  -4    2.31    4.53
   3  -5  -4    2.16    6.00
  -3   5   5   88.31   31.41
  -3   5   5   90.44   31.43
   3  -5  -5  100.07   31.55
   3  -5  -5   90.53   30.91
  -3   5   6  166.60   52.97
  -3   5   6  159.52   54.27
  -3   5   6  170.52   52.80
  -3   5   6  143.61   52.64
   3  -5  -6  176.96   53.16
   3  -5  -6  150.76   52.23
   3  -5  -6  133.95   52.08
  -3   5   7   41.93   12.49
  -3   5   7   25.08   13.68
  -3   5   7   17.38   13.93
   3  -5  -7   32.28   12.03
   3  -5  -7   24.45   11.82
   3  -5  -7   18.66   12.05
  -3   5   8  149.40   49.94
   3  -5  -8  176.16   50.99
   3  -5  -8  103.82   50.02
   3  -5  -9  100.29   29.85
   3  -5  -9   40.70   30.00
  -3   5  10  665.75  119.37
   3  -5 -10    0.75  117.41
  -3   6   1   77.43   32.46
  -3   6   1   94.52   31.56
  -3   6   1   86.46   31.28
   3  -6  -1   88.90   31.93
   3  -6  -1  102.13   31.22
   3  -6  -1  103.49   31.57
  -3   6   2 1616.45  505.59
  -3   6   2 1734.46  500.92
  -3   6   2 1432.80  500.73
   3  -6  -2 1755.95  505.46
   3  -6  -2 1437.94  500.73
   3  -6  -2 1292.38  500.74
  -3   6   3   77.68   23.54
  -3   6   3   66.36   23.97
  -3   6   3   58.51   23.03
  -3   6   3   52.10   22.65
   3  -6  -3   72.58   23.37
   3  -6  -3   70.54   22.78
   3  -6  -3   74.42   23.36
  -3   6   4  176.25   53.04
  -3   6   4  163.73   53.81
  -3   6   4  163.65   52.59
  -3   6   4  136.09   52.21
   3  -6  -4  184.05   53.17
   3  -6  -4  138.18   52.03
   3  -6  -4  151.24   52.46
  -3   6   5 1460.66  449.51
  -3   6   5 1268.79  450.01
  -3   6   5 1230.73  445.58
  -3   6   5 1225.40  445.44
   3  -6  -5 1645.76  449.71
   3  -6  -5 1342.96  445.40
   3  -6  -5 1185.70  445.36
  -3   6   6  593.33  162.49
  -3   6   6  378.12  160.78
   3  -6  -6  613.23  162.68
   3  -6  -6  473.38  161.00
   3  -6  -6  381.72  160.68
  -3   6   7  408.97  129.33
  -3   6   7  349.40  129.51
   3  -6  -7  376.77  129.30
   3  -6  -7  378.71  128.75
  -3   6   8   70.64   20.92
  -3   6   8   27.07   29.33
   3  -6  -8   45.68   22.40
   3  -6  -8   34.57   23.62
  -3   6   9 1580.25  290.66
   3  -6  -9    3.91  289.29
  -3   7   1   53.77   21.82
  -3   7   1   71.59   19.93
  -3   7   1   41.59   19.73
   3  -7  -1   66.79   20.14
   3  -7  -1   64.33   19.18
   3  -7  -1   46.28   20.03
  -3   7   2  285.98  121.40
  -3   7   2  372.37  119.94
  -3   7   2  283.06  119.58
   3  -7  -2  408.16  121.33
   3  -7  -2  380.45  119.66
   3  -7  -2  440.63  119.84
  -3   7   3  105.94   28.35
  -3   7   3   53.05   29.09
  -3   7   3   83.42   28.25
  -3   7   3   60.78   27.15
   3  -7  -3   94.00   28.25
   3  -7  -3  109.07   27.61
   3  -7  -3   62.75   27.76
  -3   7   4   17.31    8.08
  -3   7   4    6.59    7.39
   3  -7  -4    6.60    9.77
   3  -7  -4    5.54   10.20
  -3   7   5   63.32   20.68
  -3   7   5   57.69   25.23
   3  -7  -5   64.70   22.16
   3  -7  -5   36.12   22.16
  -3   7   6  594.05  199.42
  -3   7   6  587.76  199.21
   3  -7  -6  605.76  198.32
  -3   7   7   18.31   11.37
  -3   7   7   18.13   33.86
   3  -7  -7   -0.58    8.52
   3  -7  -7    9.94   20.78
  -3   7   8  651.41  218.21
  -3   8   1  174.44   75.53
  -3   8   1  252.80   74.52
  -3   8   1  162.48   73.71
   3  -8  -1  294.64   75.41
   3  -8  -1  317.62   74.38
   3  -8  -1  187.11   74.10
  -3   8   2  106.25   50.68
  -3   8   2  197.21   50.09
  -3   8   2   97.54   49.07
   3  -8  -2  176.82   50.44
   3  -8  -2  196.28   49.51
   3  -8  -2  138.47   49.30
  -3   8   3   31.76   13.00
  -3   8   3   24.73   14.16
   3  -8  -3   26.79   14.40
   3  -8  -3   28.82   12.26
  -3   8   4  140.63   49.93
  -3   8   4  126.94   52.16
   3  -8  -4  139.83   50.48
   3  -8  -4  164.23   50.00
  -3   8   5  541.75  179.77
  -3   8   5  529.11  180.23
   3  -8  -5  532.91  180.16
  -3   8   6  668.49  108.19
  -3   8   6  532.98  112.61
   3  -8  -6   -2.44  106.64
   3  -8  -6    8.42  107.14
  -3   8   7  474.81   88.59
   3  -8  -7    4.64   87.34
  -3   9   1   10.96   11.69
   3  -9  -1   15.91   10.82
   3  -9  -1   14.61    9.25
  -3   9   2  230.67   75.56
  -3   9   2  224.68   75.18
   3  -9  -2  194.72   75.40
   3  -9  -2  232.52   74.46
  -3   9   3 1086.11  321.50
  -3   9   3  949.11  318.88
   3  -9  -3  897.06  321.40
   3  -9  -3  906.21  318.09
  -3   9   4  850.71  280.00
  -3   9   4 1020.80  279.69
   3  -9  -4  778.80  280.05
   3  -9  -4  793.48  277.43
  -3   9   5    4.99   13.35
  -3   9   5   11.35   31.62
   3  -9  -5    3.06   14.17
   3  -9  -5   -5.81   24.74
  -3   9   6  870.38  291.33
  -3  10   1   31.90   22.39
   3 -10  -1   55.60   21.88
   3 -10  -1   42.66   17.88
  -3  10   2  193.64   67.18
  -3  10   2  259.81   68.68
   3 -10  -2  190.00   67.37
   3 -10  -2  147.91   65.54
   3 -10  -3    4.53  212.15
   3 -10  -3   20.73  210.38
  -3  10   4    5.14   15.59
  -3  10   4   15.77   43.05
   3 -10  -4   14.45   21.47
  -3  10   5  189.07   42.57
   3 -10  -5    5.68   39.04
  -3  11   1   56.93   26.94
  -3  11   1   42.44   36.16
   3 -11  -1   35.84   26.62
   3 -11  -1   36.35   23.17
  -3  11   2  947.33  188.46
   3 -11  -2   -3.14  185.93
   3 -11  -2   14.40  184.28
  -3  11   3  200.55   39.11
  -3  11   3  243.22   54.96
   3 -11  -3    6.07   36.21
   3 -11  -3   -2.04   37.12
  -3  12   1  763.90  118.24
  -3  12   1  779.65  121.80
   3 -12  -1    6.53  114.54
   3 -12  -1    6.59  110.90
   2  12  -3   11.21   13.35
  -2 -12   3   14.34   29.06
  -2 -12   4  130.35   46.02
  -2 -12   4    0.79   35.88
   2  12  -4  109.86   46.74
   2  12  -4  163.02   50.26
  -2 -12   5   21.89   27.35
  -2 -12   5    9.36   21.95
   2  12  -5   -1.37   35.02
  -2 -12   6 1412.74  313.36
  -2 -12   6 3113.89  767.33
   2  12  -6 1843.85  767.61
  -2 -12   7   57.86   40.46
  -2 -12   7   84.53   30.19
   2  12  -7   41.02   38.89
  -2 -12   8  679.98  278.84
  -2 -12   8  802.61  273.42
   2  12  -8  986.60  275.86
  -2 -12   9   25.90   35.96
  -2 -12   9   26.54   22.88
   2  12  -9   27.92   35.01
  -2 -12  10  243.97  100.72
  -2 -12  10  306.38   92.15
   2  12 -10  226.70   95.32
  -2 -12  11  289.40   86.34
   2  12 -11  187.83   89.20
  -2 -11   1  246.73   79.72
   2  11  -1  204.45   78.63
  -2 -11   2   19.77   22.43
  -2 -11   2    1.31   18.53
   2  11  -2   19.28   20.84
   2  11  -2   31.53   35.86
  -2 -11   3  628.45  144.14
  -2 -11   3    3.75  138.75
   2  11  -3  562.40  144.26
   2  11  -3  652.96  144.84
  -2 -11   4  697.04  242.64
  -2 -11   4  701.32  239.04
   2  11  -4  773.20  240.60
  -2 -11   5  954.58  361.80
  -2 -11   5 1190.34  357.37
   2  11  -5 1027.86  358.09
  -2 -11   6  109.80   40.95
  -2 -11   6   84.24   33.93
   2  11  -6   76.70   37.96
  -2 -11   7   32.97   26.57
  -2 -11   7   35.09   18.49
   2  11  -7   26.83   24.77
  -2 -11   8  280.20  115.80
  -2 -11   8  366.20  111.79
   2  11  -8  329.82  114.30
  -2 -11   9  333.36  159.70
  -2 -11   9  370.04  155.85
   2  11  -9  744.15  159.13
  -2 -11  10   14.97   26.32
  -2 -11  10   18.02   16.85
   2  11 -10    7.54   28.58
  -2 -11  11  518.46  153.12
  -2 -11  11  376.52  146.92
   2  11 -11  461.75  150.63
  -2 -11  12   72.90   42.72
  -2 -11  12   57.43   32.53
  -2 -10   1  453.61  104.25
  -2 -10   1   -2.92  100.58
   2  10  -1  377.94  103.66
   2  10  -1  414.56  106.61
  -2 -10   2  895.43  325.95
  -2 -10   2  972.80  322.34
   2  10  -2 1014.21  326.09
   2  10  -2 1015.60  323.59
  -2 -10   3   70.56   27.62
  -2 -10   3   47.97   23.61
   2  10  -3   48.62   27.45
   2  10  -3   76.64   30.38
  -2 -10   4 4164.66 1392.98
  -2 -10   4 4261.72 1380.32
   2  10  -4 4088.71 1380.67
  -2 -10   5   68.02   30.41
  -2 -10   5   62.21   24.80
   2  10  -5   65.20   27.37
  -2 -10   6  370.86  125.85
  -2 -10   6  393.21  123.57
   2  10  -6  336.05  124.19
  -2 -10   7    1.07   10.57
  -2 -10   7    2.69   10.67
   2  10  -7   -0.24   15.42
  -2 -10   8    4.72   20.32
  -2 -10   8   23.34   15.18
   2  10  -8   44.84   20.98
  -2 -10   9   55.64   27.86
  -2 -10   9   61.21   23.43
   2  10  -9   43.27   28.39
  -2 -10  10  136.29   48.78
  -2 -10  10  120.19   44.21
   2  10 -10  120.12   48.58
  -2 -10  11  259.54   77.89
  -2 -10  11  194.59   72.58
   2  10 -11  193.09   76.65
  -2 -10  12   16.14   29.25
  -2 -10  12   20.52   22.04
   2  10 -12   26.97   20.32
  -2 -10  13   61.77   35.56
  -2 -10  13   46.32   22.83
   2  10 -13   -3.61   24.22
  -2  -9   1  887.10  111.39
   2   9  -1  936.32  111.81
  -2  -9   1  709.74  277.46
   2   9  -1  830.41  278.49
  -2  -9   2   72.54   28.10
  -2  -9   2   63.07   25.40
   2   9  -2   68.01   28.07
   2   9  -2   71.10   27.95
  -2  -9   3 1274.63  512.83
  -2  -9   3 1940.40  508.05
   2   9  -3 1230.15  507.96
  -2  -9   4  205.46   59.89
  -2  -9   4  155.66   56.99
   2   9  -4  148.77   57.97
  -2  -9   5 3109.70 1106.33
  -2  -9   5 3676.54 1096.32
   2   9  -5 3004.67 1096.42
  -2  -9   6    3.80   14.02
  -2  -9   6    7.42    9.06
   2   9  -6    3.67   12.68
  -2  -9   7   70.69   28.23
  -2  -9   7   69.40   25.08
   2   9  -7   65.48   26.84
  -2  -9   8 1219.20  403.46
  -2  -9   8 1264.14  399.08
   2   9  -8 1115.54  399.36
  -2  -9   9    8.78   17.50
  -2  -9   9   23.31   13.52
   2   9  -9   23.06   18.99
  -2  -9  10  293.45  101.18
  -2  -9  10  260.27   98.51
   2   9 -10  345.49  100.47
  -2  -9  11  441.98  167.28
  -2  -9  11  555.36  164.72
   2   9 -11  461.31  165.83
  -2  -9  12   73.16   33.37
  -2  -9  12   77.49   31.38
   2   9 -12   43.15   27.32
  -2  -9  13  -14.84   27.03
  -2  -9  13    7.08   14.04
   2   9 -13    6.37   20.61
  -2  -9  14   66.88   36.82
  -2  -9  14   63.24   30.87
   2   9 -14    1.65   28.34
  -2  -8   1  310.73   94.08
  -2  -8   1  261.39   92.04
   2   8  -1  287.42   93.92
   2   8  -1  238.21   92.33
  -2  -8   2  244.75   82.60
  -2  -8   2  231.37   80.84
   2   8  -2  256.25   81.29
  -2  -8   3   42.92   17.82
  -2  -8   3   26.47   13.26
   2   8  -3   34.33   14.50
  -2  -8   4  842.62  257.36
  -2  -8   4  712.47  254.36
   2   8  -4  774.39  254.66
  -2  -8   5  481.10  158.39
  -2  -8   5  445.43  156.22
   2   8  -5  500.64  156.54
  -2  -8   6   33.42   21.42
  -2  -8   6   75.16   20.01
   2   8  -6   50.05   20.34
  -2  -8   7  237.35   85.89
  -2  -8   7  265.24   84.40
   2   8  -7  251.29   84.85
  -2  -8   8  195.48   84.69
  -2  -8   8  295.99   83.52
   2   8  -8  243.15   84.03
  -2  -8   9    7.44   13.28
  -2  -8   9    0.65   10.29
   2   8  -9    7.66   14.88
  -2  -8  10  660.64  226.87
  -2  -8  10  692.11  223.90
   2   8 -10  669.35  224.74
  -2  -8  11   50.71   23.26
  -2  -8  11   50.02   20.07
   2   8 -11   35.26   24.82
  -2  -8  12  950.71  280.29
  -2  -8  12  873.95  276.41
   2   8 -12  672.27  276.64
  -2  -8  13   57.44   27.08
  -2  -8  13   45.28   21.88
   2   8 -13   -2.11   21.71
  -2  -8  14 1393.97  303.22
  -2  -8  14  656.05  296.99
  -2  -7   1 4043.23 1181.75
  -2  -7   1 3746.11 1171.35
  -2  -7   1 2716.50 1171.26
   2   7  -1 4781.74 1181.70
   2   7  -1 2379.38 1171.05
   2   7  -1 4363.33 1171.70
  -2  -7   2   45.88   14.01
  -2  -7   2   57.16   13.08
  -2  -7   2   21.77   14.15
   2   7  -2   23.47   15.40
   2   7  -2   18.58   12.47
   2   7  -2   43.48   13.77
  -2  -7   3  772.96  193.79
  -2  -7   3  617.62  191.41
  -2  -7   3  521.27  191.54
   2   7  -3  419.76  193.46
   2   7  -3  454.62  191.23
   2   7  -3  770.21  191.79
  -2  -7   4   17.45   10.04
  -2  -7   4   35.55    9.12
  -2  -7   4   17.62   10.40
   2   7  -4   13.25   10.99
   2   7  -4   12.44    8.95
   2   7  -4   21.83    9.84
  -2  -7   5  362.06  100.63
  -2  -7   5  341.75   99.07
  -2  -7   5  256.91   99.31
   2   7  -5  184.78  100.46
   2   7  -5  276.31   99.16
   2   7  -5  359.12   99.33
   2   7  -6  139.48   25.99
  -2  -7   6  235.78   74.82
  -2  -7   6  161.45   74.77
  -2  -7   6  361.20   73.78
  -2  -7   6  199.89   73.85
   2   7  -6  173.51   73.62
   2   7  -6  251.18   73.72
  -2  -7   7    5.47    7.15
  -2  -7   7    1.46    9.05
  -2  -7   7    4.81    5.53
  -2  -7   7    2.27    8.69
   2   7  -7    4.11    8.17
   2   7  -7    4.39    8.48
   2   7  -7   -1.66    6.40
  -2  -7   8  312.96   74.41
  -2  -7   8  167.04   73.81
  -2  -7   8  259.63   72.69
  -2  -7   8  206.81   73.08
   2   7  -8  123.22   73.55
   2   7  -8  166.38   72.78
   2   7  -8  386.65   73.58
  -2  -7   9  258.19   95.95
  -2  -7   9  278.74   94.33
   2   7  -9  316.83   94.89
  -2  -7  10   13.36   12.97
  -2  -7  10   16.25   10.50
   2   7 -10    8.55   11.21
  -2  -7  11 1257.49  389.26
  -2  -7  11  972.33  384.90
   2   7 -11 1328.85  385.53
  -2  -7  12  650.18  196.36
  -2  -7  12  619.84  193.66
   2   7 -12  474.56  193.70
  -2  -7  13 1020.05  233.56
  -2  -7  13 1008.87  230.80
   2   7 -13   -0.80  228.76
  -2  -7  14  414.71  111.73
  -2  -7  14  272.41  108.59
   2   6  -1   57.76    2.79
  -2  -6   1   54.29   18.02
  -2  -6   1   53.26   17.23
  -2  -6   1   40.87   17.80
   2   6  -1   35.30   17.04
   2   6  -1   60.41   17.74
   2   6  -2 3577.99  491.50
  -2  -6   2 3728.20 1179.02
  -2  -6   2 3393.52 1168.68
  -2  -6   2 3562.18 1168.92
   2   6  -2 3432.09 1168.76
   2   6  -2 3631.30 1168.86
  -2  -6   3  376.99  116.49
  -2  -6   3  313.06  114.92
  -2  -6   3  367.13  115.27
   2   6  -3  345.05  115.06
   2   6  -3  347.91  115.15
   2   6  -4   61.10    2.48
  -2  -6   4   66.68   22.44
  -2  -6   4   80.37   21.62
  -2  -6   4   44.56   21.84
   2   6  -4   56.02   21.57
   2   6  -4   60.44   21.82
  -2  -6   5  312.38   98.98
  -2  -6   5  326.37   99.26
  -2  -6   5  332.69   97.66
  -2  -6   5  259.02   97.73
   2   6  -5  264.16   99.08
   2   6  -5  236.12   97.55
   2   6  -5  337.40   97.82
  -2  -6   6  387.58  115.60
  -2  -6   6  308.86  115.52
  -2  -6   6  381.49  114.07
  -2  -6   6  327.45  114.20
   2   6  -6  281.51  115.57
   2   6  -6  276.86  113.99
   2   6  -6  450.95  114.29
  -2  -6   7  109.86   32.09
  -2  -6   7   89.26   32.43
  -2  -6   7  123.44   31.05
  -2  -6   7   83.13   31.15
   2   6  -7   59.00   31.64
   2   6  -7   66.40   30.80
   2   6  -7  112.09   31.39
  -2  -6   8    9.84    8.35
  -2  -6   8    5.43    8.84
  -2  -6   8   11.96    6.97
  -2  -6   8   10.45    7.76
   2   6  -8    4.94    9.44
   2   6  -8    8.11    6.77
   2   6  -8   35.19    9.67
  -2  -6   9  200.58   45.29
  -2  -6   9   93.16   44.19
  -2  -6   9  156.35   43.87
  -2  -6   9  129.78   44.07
   2   6  -9   78.08   44.10
   2   6  -9  103.63   43.65
   2   6  -9  220.44   44.46
  -2  -6  10  254.13   96.86
  -2  -6  10  350.89   95.41
   2   6 -10  236.50   95.50
  -2  -6  11  424.62  125.07
  -2  -6  11  351.66  122.96
   2   6 -11  332.41  123.28
  -2  -6  12  835.60  266.56
  -2  -6  12  726.32  263.51
   2   6 -12  844.13  263.90
  -2  -6  13   20.19   17.46
  -2  -6  13   17.29   13.20
   2   6 -13   14.78   15.57
  -2  -6  14    9.85   19.38
  -2  -6  14    3.28   13.57
  -2  -5   1 1142.42  378.61
  -2  -5   1  978.82  374.99
  -2  -5   1 1039.60  375.15
   2   5  -1 1187.66  378.69
   2   5  -1 1367.19  375.16
   2   5  -1 1095.04  375.11
  -2  -5   2   37.20   13.29
  -2  -5   2   36.70   12.45
  -2  -5   2   33.60   12.88
   2   5  -2   42.81   13.68
   2   5  -2   23.95   12.41
   2   5  -2   37.35   12.81
  -2  -5   3   62.46   20.28
  -2  -5   3   55.70   19.58
  -2  -5   3   63.52   20.03
   2   5  -3   52.97   20.97
   2   5  -3   50.44   19.62
   2   5  -3   60.91   19.82
  -2  -5   4   45.02   11.72
  -2  -5   4   28.88   10.89
  -2  -5   4   21.57   11.48
   2   5  -4   27.65   12.23
   2   5  -4   20.38   11.10
   2   5  -4   32.34   11.19
  -2  -5   5    2.47    4.98
  -2  -5   5   -1.36    5.96
  -2  -5   5    2.13    3.68
  -2  -5   5    0.26    5.26
   2   5  -5   -1.61    6.39
   2   5  -5    2.14    4.54
   2   5  -5    2.12    4.16
  -2  -5   6  121.86   37.98
  -2  -5   6  107.17   38.16
  -2  -5   6  125.20   36.98
  -2  -5   6  138.80   37.46
   2   5  -6   83.79   38.00
   2   5  -6   97.41   37.04
   2   5  -6  104.10   37.03
  -2  -5   7  366.22   98.98
  -2  -5   7  239.91   98.69
  -2  -5   7  352.15   97.51
  -2  -5   7  296.23   97.72
   2   5  -7  208.89   98.63
   2   5  -7  233.55   97.42
   2   5  -7  378.29   97.84
  -2  -5   8   14.51    8.07
  -2  -5   8    2.28    4.75
  -2  -5   8    6.20    5.40
  -2  -5   8    8.94    6.73
   2   5  -8    3.92    5.04
   2   5  -8    3.72    5.96
   2   5  -8   11.58    7.08
  -2  -5   9 2244.38  662.27
  -2  -5   9 1666.09  661.96
  -2  -5   9 2796.38  656.38
  -2  -5   9 2344.73  656.47
   2   5  -9 1244.97  661.81
   2   5  -9 1735.28  656.19
   2   5  -9 2436.94  656.44
  -2  -5  10   75.18   17.12
  -2  -5  10   31.59   16.09
  -2  -5  10   39.33   16.12
   2   5 -10   24.48   16.33
   2   5 -10   38.44   17.59
   2   5 -10   67.01   16.19
  -2  -5  11 1064.06  315.75
   2   5 -11  843.34  312.29
  -2  -5  12  254.00   67.58
  -2  -5  12  193.01   65.51
   2   5 -12  156.01   65.69
  -2  -5  13  967.92  247.47
  -2  -5  13  686.90  244.01
   2   5 -13  639.04  244.35
  -2  -5  14   10.09   16.55
  -2  -5  14   -0.23   14.70
   2   5 -14    2.80   13.48
  -2  -4   1  231.60   74.98
  -2  -4   1  239.91   73.96
  -2  -4   1  201.03   74.06
   2   4  -1  221.73   75.00
   2   4  -1  230.81   74.02
   2   4  -1  204.25   74.01
  -2  -4   2   93.56   32.98
  -2  -4   2   94.24   32.36
  -2  -4   2   85.03   32.59
   2   4  -2   99.41   33.18
   2   4  -2  126.05   32.52
   2   4  -2   79.71   32.48
  -2  -4   3 1323.94  408.82
  -2  -4   3 1036.88  404.97
  -2  -4   3 1355.33  405.22
   2   4  -3 1308.51  408.89
   2   4  -3 1271.20  405.09
   2   4  -3 1158.83  405.04
  -2  -4   4  131.87   52.36
  -2  -4   4  143.64   51.55
  -2  -4   4  164.70   51.98
   2   4  -4  182.90   52.79
   2   4  -4  167.90   51.83
   2   4  -4  155.97   51.63
  -2  -4   5   18.75    7.59
  -2  -4   5   19.47    7.92
  -2  -4   5   14.40    6.56
  -2  -4   5   19.19    8.64
   2   4  -5   13.94    8.01
   2   4  -5   15.18    8.10
   2   4  -5   15.89    6.80
  -2  -4   6 1599.48  458.10
  -2  -4   6 1119.24  457.95
  -2  -4   6 1352.76  453.69
  -2  -4   6 1551.87  453.96
   2   4  -6  776.82  457.78
   2   4  -6 1165.61  453.75
   2   4  -6 2202.62  453.99
  -2  -4   7  238.63   77.38
  -2  -4   7  155.04   77.04
  -2  -4   7  264.02   76.19
  -2  -4   7  275.84   76.61
   2   4  -7  181.10   77.08
   2   4  -7  275.21   76.42
   2   4  -7  241.76   76.25
  -2  -4   8 2859.48  831.87
  -2  -4   8 1835.08  831.48
  -2  -4   8 2627.00  824.27
  -2  -4   8 3394.41  824.68
   2   4  -8 2489.03  824.32
   2   4  -8 2275.46  824.26
  -2  -4   9  179.62   44.28
  -2  -4   9   95.68   43.18
  -2  -4   9  173.38   42.83
  -2  -4   9  183.54   43.53
   2   4  -9   86.00   43.09
   2   4  -9  100.94   42.61
   2   4  -9  131.43   42.67
  -2  -4  10  741.43  189.40
  -2  -4  10  669.06  186.87
  -2  -4  10  561.10  187.07
   2   4 -10  361.92  188.60
   2   4 -10  487.98  186.95
   2   4 -10  649.16  186.99
  -2  -4  11  819.25  191.28
  -2  -4  11  702.21  188.68
  -2  -4  11  364.90  188.61
   2   4 -11  339.62  188.43
   2   4 -11  574.45  188.58
  -2  -4  12 1235.00  356.32
  -2  -4  12  925.26  352.22
   2   4 -12 1119.61  352.56
  -2  -4  13   14.33   13.53
  -2  -4  13    7.83   10.26
  -2  -4  14  180.75   64.07
  -2  -3   1  132.39   41.31
  -2  -3   1  124.39   40.57
  -2  -3   1  161.10   41.00
   2   3  -1  106.55   41.33
   2   3  -1  113.30   40.78
   2   3  -1  108.40   40.58
  -2  -3   2   20.58    7.54
  -2  -3   2   16.61    7.07
  -2  -3   2   20.85    8.33
   2   3  -2   20.78    7.73
   2   3  -2   18.41    7.75
   2   3  -2   19.49    7.18
  -2  -3   3  230.44   85.71
  -2  -3   3  217.82   84.62
  -2  -3   3  295.16   84.89
   2   3  -3  330.65   85.90
   2   3  -3  280.63   84.77
   2   3  -3  206.59   84.63
  -2  -3   4   40.35   15.35
  -2  -3   4   38.16   15.57
  -2  -3   4   39.75   14.76
  -2  -3   4   52.44   15.49
   2   3  -4   33.10   15.83
   2   3  -4   54.55   15.23
   2   3  -4   45.01   15.07
  -2  -3   5   14.67    6.72
  -2  -3   5   25.04    7.36
  -2  -3   5    7.82    5.36
  -2  -3   5   13.46    7.15
   2   3  -5   10.07    6.82
   2   3  -5   14.20    6.53
   2   3  -5   10.01    6.01
  -2  -3   6   23.78   11.47
  -2  -3   6   28.78   11.23
  -2  -3   6   31.34   10.82
  -2  -3   6   34.73   11.92
   2   3  -6   19.77   11.62
   2   3  -6   31.83   11.48
   2   3  -6   39.88   11.54
  -2  -3   7  840.19  231.26
  -2  -3   7  597.08  230.91
  -2  -3   7  715.41  228.61
  -2  -3   7  820.27  228.92
   2   3  -7  531.27  230.80
   2   3  -7  780.75  228.75
   2   3  -7  699.62  228.66
  -2  -3   8  122.60   34.22
  -2  -3   8   73.85   33.49
  -2  -3   8  138.32   33.15
  -2  -3   8   94.31   33.58
   2   3  -8   63.47   33.47
   2   3  -8  105.38   34.66
   2   3  -8  114.93   33.39
   2   3  -8  105.12   33.08
  -2  -3   9  994.80  212.77
  -2  -3   9  527.00  212.05
  -2  -3   9  619.02  209.87
  -2  -3   9  623.86  210.21
   2   3  -9  484.21  211.94
   2   3  -9  603.62  210.06
   2   3  -9  713.48  210.00
  -2  -3  10   76.01   21.96
  -2  -3  10   38.74   20.22
  -2  -3  10   65.11   20.22
  -2  -3  10   59.54   21.78
   2   3 -10   35.35   19.89
   2   3 -10   70.28   23.07
   2   3 -10   59.07   20.03
   2   3 -10   66.47   20.49
  -2  -3  11  173.44   48.61
  -2  -3  11  130.44   47.30
  -2  -3  11  103.20   47.82
   2   3 -11  144.27   48.76
   2   3 -11  109.98   47.57
   2   3 -11  176.29   47.69
  -2  -3  12    8.73   11.75
  -2  -3  12    4.99    8.96
   2   3 -12    4.95   11.89
   2   3 -12    5.25   11.00
  -2  -3  13  171.41   55.99
   2   3 -13  136.16   56.84
  -2  -3  14   14.82   26.50
   2   3 -14    2.70   23.89
  -2  -2   1   44.91   14.53
  -2  -2   1   50.49   14.11
  -2  -2   1   37.54   14.19
   2   2  -1   41.76   14.45
   2   2  -1   34.56   14.00
   2   2  -1   36.45   14.27
  -2  -2   2  676.31  229.51
  -2  -2   2  654.45  227.26
  -2  -2   2  711.91  227.34
   2   2  -2  725.11  229.54
   2   2  -2  704.49  227.28
   2   2  -2  676.50  227.30
  -2  -2   3 1072.05  389.85
  -2  -2   3 1288.83  386.31
  -2  -2   3 1054.32  386.33
   2   2  -3 1278.34  390.03
   2   2  -3 1328.46  386.32
   2   2  -3  981.02  386.28
  -2  -2   4 2003.77  596.45
  -2  -2   4 1885.93  596.47
  -2  -2   4 2092.93  591.08
  -2  -2   4 1504.39  591.07
   2   2  -4 1455.69  596.39
   2   2  -4 1429.18  591.01
   2   2  -4 2077.94  591.09
  -2  -2   5  107.45   34.63
  -2  -2   5   89.41   34.36
  -2  -2   5  114.21   33.70
  -2  -2   5  115.07   33.88
   2   2  -5  101.74   34.39
   2   2  -5   99.40   33.78
   2   2  -5   84.11   33.74
  -2  -2   6 2400.06  758.98
  -2  -2   6 2399.11  752.17
  -2  -2   6 2740.13  752.30
   2   2  -6 1714.18  758.69
   2   2  -6 2121.18  759.01
   2   2  -6 2510.33  752.20
   2   2  -6 2363.77  752.17
  -2  -2   7  830.26  262.91
  -2  -2   7  750.00  262.77
  -2  -2   7  736.66  260.15
  -2  -2   7  833.84  260.36
   2   2  -7  735.12  262.67
   2   2  -7  769.09  262.90
   2   2  -7  905.30  260.29
   2   2  -7  803.80  260.21
  -2  -2   8 1608.26  512.46
  -2  -2   8 1643.06  507.86
   2   2  -8 1188.51  512.15
   2   2  -8 1661.25  512.55
   2   2  -8 1814.42  507.77
  -2  -2   9  213.62   62.21
  -2  -2   9   88.04   61.67
  -2  -2   9  286.38   61.15
  -2  -2   9  119.70   61.13
   2   2  -9   91.61   61.50
   2   2  -9  226.95   62.40
   2   2  -9  288.02   61.33
  -2  -2  10 1920.44  538.17
  -2  -2  10 1428.11  532.83
  -2  -2  10 1819.65  533.31
   2   2 -10 1233.92  537.66
   2   2 -10 1904.04  538.26
   2   2 -10 1951.01  533.14
   2   2 -10 1543.39  532.83
  -2  -2  11   16.75   11.24
  -2  -2  11    5.98    7.70
  -2  -2  11    1.90   10.95
   2   2 -11   25.26   15.68
   2   2 -11   10.65    9.53
   2   2 -11   11.43    8.10
  -2  -2  12  478.42  155.74
   2   2 -12  445.58  155.87
  -2  -2  13   17.61   16.49
   2   2 -14    2.53   17.20
  -2  -1   1 1442.46  568.59
  -2  -1   1 2127.88  563.61
  -2  -1   1 1746.83  563.61
   2   1  -1 1609.54  568.63
   2   1  -1 1815.54  563.61
   2   1  -1 1513.53  563.58
  -2  -1   2  233.81   78.59
  -2  -1   2  230.05   77.64
  -2  -1   2  253.15   77.69
   2   1  -2  223.97   78.62
   2   1  -2  223.91   77.65
   2   1  -2  246.76   77.66
  -2  -1   3    4.34    3.02
  -2  -1   3    9.03    3.41
  -2  -1   3    4.69    3.05
  -2  -1   3    7.97    3.33
   2   1  -3    7.72    3.83
   2   1  -3    2.07    2.78
   2   1  -3    4.34    3.16
  -2  -1   4 1370.38  399.04
  -2  -1   4 1069.73  398.92
  -2  -1   4 1377.37  395.22
  -2  -1   4  981.22  395.18
   2   1  -4 1152.63  395.19
   2   1  -4 1246.12  395.21
  -2  -1   5 2205.37  678.79
  -2  -1   5 1763.40  678.64
  -2  -1   5 2003.74  672.68
  -2  -1   5 2336.78  672.75
   2   1  -5 1877.23  678.58
   2   1  -5 2220.07  678.84
   2   1  -5 2054.47  672.71
   2   1  -5 2063.76  672.69
  -2  -1   6   78.17   27.53
  -2  -1   6   80.70   26.90
  -2  -1   6   86.29   27.05
   2   1  -6   71.39   27.32
   2   1  -6   81.15   27.68
   2   1  -6   93.69   27.09
   2   1  -6   75.77   26.83
  -2  -1   7 1407.67  537.98
  -2  -1   7 1342.27  537.90
  -2  -1   7 1979.10  533.11
  -2  -1   7 1956.72  533.27
   2   1  -7 1449.29  537.81
   2   1  -7 1661.11  538.06
   2   1  -7 1487.77  533.09
   2   1  -7 1758.17  533.11
  -2  -1   8  168.47   53.98
  -2  -1   8  153.44   53.98
  -2  -1   8  178.60   52.97
  -2  -1   8  183.94   53.44
   2   1  -8  149.07   53.74
   2   1  -8  169.37   54.08
   2   1  -8  152.72   53.12
   2   1  -8  140.19   52.87
  -2  -1   9 1711.31  507.77
  -2  -1   9 1581.26  502.93
   2   1  -9 1289.07  507.47
   2   1  -9 1574.31  507.82
   2   1  -9 1581.72  503.03
  -2  -1  10  190.97   56.24
  -2  -1  10  137.89   56.28
  -2  -1  10  191.86   55.25
  -2  -1  10  138.84   55.69
   2   1 -10  142.55   56.20
   2   1 -10  210.54   56.51
   2   1 -10  131.32   55.27
  -2  -1  11   94.89   32.89
   2   1 -11   88.74   32.68
  -2  -1  12  154.98   58.88
   2   1 -12  188.74   60.09
  -2  -1  13   23.60   16.40
   2   1 -13    0.34   16.62
  -2   0   1   67.43   28.08
  -2   0   1   92.76   27.62
  -2   0   1   87.53   27.60
   2   0  -1   76.73   28.01
   2   0  -1   85.46   28.05
   2   0  -1   92.70   27.62
   2   0  -1   80.35   27.57
  -2   0   2   61.28   19.94
  -2   0   2   61.55   19.95
   2   0  -2   59.47   20.51
   2   0  -2   58.00   19.97
   2   0  -2   58.91   19.91
  -2   0   3  185.75   44.89
  -2   0   3  112.68   44.03
  -2   0   3  129.24   44.06
   2   0  -3  144.03   44.87
   2   0  -3  127.21   44.05
   2   0  -3  129.17   44.07
  -2   0   4  180.74   48.82
  -2   0   4  130.05   48.53
  -2   0   4  145.16   47.86
  -2   0   4  136.85   47.84
   2   0  -4  127.78   48.46
   2   0  -4  186.55   48.89
   2   0  -4  149.05   47.88
  -2   0   5   78.60   25.98
  -2   0   5   71.49   25.97
  -2   0   5   78.24   25.42
  -2   0   5   73.23   25.45
   2   0  -5   72.63   25.85
   2   0  -5   78.47   26.06
   2   0  -5   81.84   25.47
  -2   0   6 2688.89  806.74
  -2   0   6 2254.54  806.68
  -2   0   6 2549.64  799.58
  -2   0   6 2164.12  799.59
   2   0  -6 2081.90  806.59
   2   0  -6 3047.17  806.88
   2   0  -6 2430.26  799.59
   2   0  -6 2407.22  799.57
  -2   0   7  627.55  193.17
  -2   0   7  528.13  193.13
  -2   0   7  599.74  191.09
  -2   0   7  539.64  191.13
   2   0  -7  548.10  193.06
   2   0  -7  675.98  193.32
   2   0  -7  563.29  191.14
   2   0  -7  567.32  191.06
  -2   0   8  114.56   38.40
  -2   0   8   97.87   38.68
  -2   0   8  124.39   37.78
  -2   0   8  124.80   38.16
   2   0  -8  107.47   38.41
   2   0  -8  120.24   38.61
   2   0  -8  106.01   37.84
  -2   0   9  261.15   89.24
  -2   0   9  309.60   89.98
  -2   0   9  251.63   88.11
  -2   0   9  309.85   88.76
   2   0  -9  264.88   89.47
   2   0  -9  258.58   88.24
   2   0  -9  249.20   88.04
  -2   0  10   21.60    8.76
  -2   0  10   18.08   13.42
   2   0 -10   16.40   14.11
   2   0 -10   18.11    9.23
  -2   0  11  285.30   96.51
  -2   0  12   66.18   27.78
   2   0 -12   82.90   28.80
  -2   0  13   33.73   13.78
   2   0 -13   -1.43   15.44
  -2   1   2    3.34    2.27
  -2   1   2    3.97    2.03
   2  -1  -2    3.53    2.19
   2  -1  -2    2.58    2.11
  -2   1   3  980.81  309.59
  -2   1   3  985.59  309.58
   2  -1  -3  844.98  309.56
   2  -1  -3  948.64  309.57
  -2   1   4  910.81  272.39
  -2   1   4  780.83  272.42
  -2   1   4  887.27  269.82
   2  -1  -4  744.70  269.81
   2  -1  -4  769.11  269.80
  -2   1   5 4131.23 1399.91
  -2   1   5 3963.27 1387.87
  -2   1   5 3735.20 1387.86
   2  -1  -5 4384.38 1399.83
   2  -1  -5 4376.78 1399.89
   2  -1  -5 4648.18 1387.88
   2  -1  -5 4139.04 1387.84
  -2   1   6  502.12  248.01
  -2   1   6  919.13  248.24
  -2   1   6  680.27  245.66
  -2   1   6  711.60  245.68
   2  -1  -6  699.93  248.12
   2  -1  -6  555.55  248.05
   2  -1  -6  628.68  245.65
   2  -1  -6 1243.62  245.78
  -2   1   7  874.51  302.59
  -2   1   7  947.72  302.83
  -2   1   7  872.70  299.80
   2  -1  -7 1002.32  302.75
   2  -1  -7  856.02  302.66
  -2   1   8  238.76   84.78
  -2   1   8  263.68   84.06
   2  -1  -8  276.17   85.13
   2  -1  -8  298.10   83.87
   2  -1  -8  223.53   83.63
  -2   1   9  455.99  137.43
  -2   1   9  398.67  137.78
   2  -1  -9  354.73  137.62
   2  -1 -10  657.20  219.81
  -2   1  11    4.02    6.04
   2  -1 -11    2.64    8.08
  -2   1  12   85.76   18.29
   2  -1 -12   -1.29   17.37
  -2   2   1    7.22    3.45
  -2   2   1    6.06    2.94
  -2   2   1    5.17    2.35
   2  -2  -1    5.87    2.78
   2  -2  -1    6.48    3.12
   2  -2  -1    4.38    2.39
   2  -2  -1    5.73    2.59
  -2   2   2 1269.27  482.91
  -2   2   2 1587.22  478.59
  -2   2   2 1447.69  478.54
   2  -2  -2 1169.09  482.82
   2  -2  -2 1611.89  478.57
   2  -2  -2 1592.81  478.56
  -2   2   3   16.51    7.31
  -2   2   3   19.82    7.43
  -2   2   3   26.41    7.40
  -2   2   3   19.42    7.11
   2  -2  -3   19.80    7.41
   2  -2  -3   21.08    7.10
   2  -2  -3   22.25    7.12
  -2   2   4 4089.32 1487.49
  -2   2   4 3944.08 1487.54
  -2   2   4 5158.02 1474.90
  -2   2   4 4083.36 1474.81
   2  -2  -4 4525.15 1487.56
   2  -2  -4 5340.43 1474.88
  -2   2   5  431.90  143.67
  -2   2   5  467.15  143.82
  -2   2   5  502.09  142.23
  -2   2   5  349.33  142.14
   2  -2  -5  403.90  143.76
   2  -2  -5  423.49  142.16
   2  -2  -5  450.37  142.16
  -2   2   6 1044.74  351.33
  -2   2   6 1031.80  351.50
  -2   2   6  993.80  348.06
  -2   2   6 1126.06  348.08
   2  -2  -6 1102.15  351.43
   2  -2  -6 1029.59  348.03
  -2   2   7  119.66   41.07
  -2   2   7  124.26   41.43
  -2   2   7  123.77   40.47
   2  -2  -7  118.83   41.24
  -2   2   8  573.48  177.84
  -2   2   8  572.56  178.31
  -2   2   8  458.74  175.93
  -2   2   8  510.92  176.09
   2  -2  -8  580.65  177.96
   2  -2  -8  482.14  175.85
  -2   2   9   31.05   11.80
  -2   2   9   13.61   12.40
   2  -2  -9   28.00   12.01
  -2   2  11   94.24   29.70
   2  -2 -11   52.73   28.00
  -2   2  12   65.30   16.56
   2  -2 -12   -1.01   15.13
  -2   3   1  263.72   98.97
  -2   3   1  296.77   97.77
  -2   3   1  289.33   97.71
   2  -3  -1  254.32   98.86
   2  -3  -1  304.13   97.75
   2  -3  -1  346.51   97.74
  -2   3   2 1166.93  395.41
   2  -3  -2 1175.34  399.05
   2  -3  -2 1255.42  395.43
  -2   3   3 4173.02 1454.84
  -2   3   3 3685.70 1454.96
  -2   3   3 4777.54 1442.51
  -2   3   3 4791.08 1442.46
   2  -3  -3 4151.99 1454.93
   2  -3  -3 4463.13 1442.44
  -2   3   4    4.52    2.55
  -2   3   4    4.99    3.27
  -2   3   4    5.07    3.41
  -2   3   4    4.62    3.58
   2  -3  -4    4.12    3.11
   2  -3  -4    2.51    3.11
  -2   3   5   79.06   24.97
  -2   3   5   77.73   25.30
  -2   3   5   66.67   24.52
   2  -3  -5   83.55   25.10
   2  -3  -5   67.13   24.42
   2  -3  -5   67.46   24.43
  -2   3   6   72.29   25.39
  -2   3   6   73.24   25.08
  -2   3   6   75.81   25.05
   2  -3  -6   74.52   25.46
   2  -3  -6   75.24   24.89
  -2   3   7  308.47   98.86
  -2   3   7  294.91   97.81
   2  -3  -7  296.59   98.97
   2  -3  -7  280.83   97.63
  -2   3   8  189.36   54.07
  -2   3   8  135.68   54.65
  -2   3   8  139.88   53.61
   2  -3  -8  182.09   54.17
   2  -3  -8  129.89   53.15
   2  -3  -8  143.59   53.18
  -2   3   9   41.27   15.59
   2  -3  -9   40.97   16.90
  -2   3  10  267.77   94.37
   2  -3 -10  291.22   94.09
  -2   3  11  119.34   24.80
   2  -3 -11   -1.98   23.79
  -2   4   1    9.91    6.16
  -2   4   1    8.89    5.27
  -2   4   1   15.12    5.78
   2  -4  -1   12.38    5.32
   2  -4  -1   14.05    5.06
   2  -4  -1   14.22    6.46
  -2   4   2 4192.22 1576.95
  -2   4   2 4165.84 1563.40
  -2   4   2 4717.62 1563.37
   2  -4  -2 5186.11 1576.87
   2  -4  -2 4937.55 1563.39
   2  -4  -2 4990.82 1563.42
  -2   4   3  250.52  103.66
  -2   4   3  246.15  103.79
  -2   4   3  249.40  102.50
  -2   4   3  395.36  102.54
   2  -4  -3  279.84  103.74
   2  -4  -3  400.46  102.58
   2  -4  -3  268.12  102.50
  -2   4   4  435.59  140.41
  -2   4   4  456.98  140.67
  -2   4   4  368.33  138.94
  -2   4   4  428.29  138.89
   2  -4  -4  411.05  140.45
   2  -4  -4  417.59  138.90
  -2   4   5    6.53    4.36
  -2   4   5    6.51    6.21
  -2   4   5   12.14    6.63
   2  -4  -5    8.24    4.41
   2  -4  -5    9.06    4.23
   2  -4  -5    4.52    4.28
  -2   4   6   31.63   11.98
  -2   4   6   31.28   13.01
  -2   4   6   32.87   12.93
   2  -4  -6   35.43   11.97
   2  -4  -6   31.04   11.93
  -2   4   7  317.81   96.21
   2  -4  -7  262.36   96.85
   2  -4  -7  328.66   95.80
   2  -4  -7  267.96   95.51
  -2   4   8  254.63   89.73
   2  -4  -8  281.54   90.04
  -2   4   9  147.87   50.93
   2  -4  -9  147.21   50.88
  -2   4  10   33.16   12.10
   2  -4 -10   -1.26   11.13
  -2   4  11   63.30   16.39
   2  -4 -11   -3.05   15.06
  -2   5   1 2440.08  875.43
  -2   5   1 2609.55  867.66
   2  -5  -1 2641.74  875.34
   2  -5  -1 2341.23  867.62
   2  -5  -1 3213.97  867.78
  -2   5   2 1626.78  547.08
  -2   5   2 1716.44  542.08
  -2   5   2 1582.38  541.97
   2  -5  -2 1566.34  546.93
   2  -5  -2 1463.71  541.95
   2  -5  -2 2018.14  542.13
  -2   5   3 1427.25  440.86
  -2   5   3 1296.46  441.04
  -2   5   3 1159.54  436.81
  -2   5   3 1573.34  436.81
   2  -5  -3 1334.51  440.88
   2  -5  -3 1107.64  436.70
  -2   5   4   11.63    5.13
  -2   5   4   12.16    9.10
  -2   5   4   10.05    6.33
  -2   5   4   11.01    5.45
   2  -5  -4    9.33    5.64
   2  -5  -4   10.31    5.39
   2  -5  -4   10.13    6.60
  -2   5   5  533.28  188.39
  -2   5   5  667.21  189.01
  -2   5   5  603.06  186.98
   2  -5  -5  600.09  186.65
   2  -5  -5  491.93  186.49
  -2   5   6  460.83  150.80
  -2   5   6  513.91  151.74
  -2   5   6  481.10  149.87
  -2   5   6  453.33  149.30
   2  -5  -6  489.21  150.97
   2  -5  -6  363.87  149.17
  -2   5   7  327.57   93.27
  -2   5   7  287.17   94.31
  -2   5   7  230.30   92.32
   2  -5  -7  354.53   93.57
   2  -5  -7  214.45   92.87
   2  -5  -7  207.51   92.04
  -2   5   8    8.30    9.66
  -2   5   9  607.43  113.37
   2  -5  -9    6.40  112.17
  -2   5  10  133.26   29.45
   2  -5 -10    2.71   26.91
  -2   6   1  246.28   93.33
  -2   6   1  330.88   92.19
   2  -6  -1  367.01   93.05
   2  -6  -1  296.62   91.85
   2  -6  -1  166.08   91.75
  -2   6   2  224.51   82.46
  -2   6   2  247.71   81.31
  -2   6   2  255.00   81.01
   2  -6  -2  232.42   82.12
   2  -6  -2  262.25   81.09
   2  -6  -2  235.69   81.17
  -2   6   3  171.27   50.62
  -2   6   3  126.50   51.12
  -2   6   3  130.66   49.84
   2  -6  -3  146.30   50.66
   2  -6  -3  173.15   49.95
  -2   6   4  406.02  143.42
  -2   6   4  395.99  144.05
  -2   6   4  437.63  142.29
  -2   6   4  376.73  141.78
   2  -6  -4  429.23  143.57
   2  -6  -4  602.21  142.31
   2  -6  -4  375.08  141.91
  -2   6   5  120.61   33.45
  -2   6   5  117.20   36.34
  -2   6   5  135.78   36.11
  -2   6   5   48.83   32.79
   2  -6  -5  137.27   33.73
   2  -6  -5  121.99   34.72
   2  -6  -5   30.61   33.22
  -2   6   6  103.29   29.88
  -2   6   6   98.74   35.05
   2  -6  -6  110.36   30.28
   2  -6  -6   35.17   28.54
  -2   6   7   62.67   21.24
  -2   6   7   36.83   31.86
   2  -6  -7   55.44   20.37
   2  -6  -7   44.76   24.69
  -2   6   8  564.90  104.77
   2  -6  -8   -1.81  103.37
  -2   6   9    0.49   12.50
  -2   7   1  551.27  228.37
  -2   7   1  814.33  226.27
  -2   7   1  571.47  225.79
   2  -7  -1  851.36  228.44
   2  -7  -1  798.11  226.08
   2  -7  -1  627.43  225.94
  -2   7   2  127.67   40.23
  -2   7   2   85.39   40.86
  -2   7   2  127.71   40.19
  -2   7   2  120.09   39.92
   2  -7  -2  106.32   40.35
   2  -7  -2  129.32   39.68
   2  -7  -2  117.23   40.30
  -2   7   3  558.44  171.42
  -2   7   3  393.40  171.79
  -2   7   3  581.51  170.04
  -2   7   3  357.78  169.34
   2  -7  -3  541.69  171.50
   2  -7  -3  697.46  169.81
  -2   7   4   11.18    6.73
  -2   7   4    0.27   17.62
  -2   7   4    5.49    7.12
   2  -7  -4   10.89    6.77
   2  -7  -4    7.58   10.16
   2  -7  -4    0.50    9.41
  -2   7   5   71.84   24.46
  -2   7   5   57.75   33.00
   2  -7  -5   68.54   24.89
   2  -7  -5   64.05   27.23
  -2   7   6  637.92  196.33
  -2   7   6  486.00  196.55
   2  -7  -6  609.10  196.38
   2  -7  -6  497.79  195.11
  -2   7   7   32.84   11.42
  -2   7   7   24.14   27.91
   2  -7  -7   -2.49    9.94
   2  -7  -7   14.76   19.57
  -2   7   8  148.74   32.17
   2  -7  -8    4.60   31.09
  -2   8   1   52.28   25.80
  -2   8   1   95.48   26.31
  -2   8   1   58.62   24.27
   2  -8  -1   83.70   25.60
   2  -8  -1  100.94   25.31
   2  -8  -1   54.88   24.49
  -2   8   2    7.97    7.31
  -2   8   2   -1.45   12.09
   2  -8  -2    4.13    6.59
   2  -8  -2    2.45    6.71
  -2   8   3  811.98  287.54
  -2   8   3 1121.20  286.21
   2  -8  -3  802.99  287.67
   2  -8  -3  825.46  284.90
  -2   8   4   30.14   14.24
   2  -8  -4   22.54   13.85
   2  -8  -4   30.56   17.46
  -2   8   5  270.69   88.27
  -2   8   5  241.71   92.56
   2  -8  -5  274.64   88.56
   2  -8  -5  225.62   88.90
  -2   8   6  231.68   62.98
  -2   8   6   91.16   67.26
   2  -8  -6  113.09   64.50
  -2   8   7   65.14   17.39
   2  -8  -7    1.93   15.43
  -2   9   1   86.63   34.70
   2  -9  -1   88.51   31.61
   2  -9  -1   78.85   29.51
  -2   9   2  252.48   98.70
  -2   9   2  286.56   99.96
   2  -9  -2  284.96   98.79
   2  -9  -2  337.30   97.59
  -2   9   3   37.49   18.89
  -2   9   3   42.65   32.42
   2  -9  -3   43.89   18.60
  -2   9   4   49.98   17.60
  -2   9   4   46.63   31.67
   2  -9  -4   25.81   16.28
   2  -9  -4    5.62   20.36
  -2   9   5   96.24   22.74
  -2   9   5   81.02   42.05
   2  -9  -5    1.66   19.24
   2  -9  -5    6.62   24.88
  -2   9   6   62.98   20.36
   2  -9  -6   16.28   21.26
  -2  10   1  315.98  111.13
  -2  10   1  419.67  111.67
   2 -10  -1  268.73  110.90
   2 -10  -1  328.19  109.85
  -2  10   2   39.44   20.43
  -2  10   2   49.15   35.33
   2 -10  -2   34.15   19.20
   2 -10  -2   27.41   19.94
  -2  10   3  182.23   28.64
   2 -10  -3   -1.83   26.13
   2 -10  -3   -2.23   27.83
  -2  10   4   41.43   21.25
  -2  10   4   46.79   42.36
   2 -10  -4    3.52   16.20
   2 -10  -4   -5.99   22.03
  -2  11   1   11.45   21.17
  -2  11   1    1.65   30.64
   2 -11  -1   18.66   21.82
   2 -11  -1    4.67   13.73
  -2  11   2   57.09   20.59
  -2  11   2   55.96   35.91
   2 -11  -2    0.94   18.10
   2 -11  -2   -2.80   19.79
  -2  11   3    1.63   16.21
   2 -11  -3   -1.23   14.96
  -2  12   1  276.30   48.02
  -2  12   1  234.45   56.14
   2 -12  -1   -0.12   43.29
   2 -12  -1   -2.32   46.04
  -1 -13   5   22.08   33.15
  -1 -13   6  534.35  185.56
  -1 -13   6  485.41  179.20
   1  13  -6  622.79  184.68
  -1 -13   7   -7.88   32.41
  -1 -13   7    9.33   17.64
   1  13  -7    3.48   39.24
  -1 -13   8  340.96  141.01
  -1 -13   8  425.02  135.03
   1  13  -8  405.23  139.92
  -1 -13   9   62.92   46.44
  -1 -13   9   74.50   32.91
   1  13  -9   44.52   45.36
  -1 -12   2   11.69   29.29
   1  12  -2   20.68   24.35
  -1 -12   3    8.13   21.54
  -1 -12   3    5.56   17.44
   1  12  -3   17.25   29.93
   1  12  -3   28.02   35.38
  -1 -12   4  183.00   83.26
  -1 -12   4  255.36   79.17
   1  12  -4  239.04   82.43
  -1 -12   5  202.65   79.33
  -1 -12   5  259.89   74.18
   1  12  -5  149.04   76.31
  -1 -12   6   55.27   35.36
  -1 -12   6   69.44   24.91
   1  12  -6   40.31   30.53
  -1 -12   7  236.01   93.68
  -1 -12   7  246.50   89.11
   1  12  -7  316.57   91.84
  -1 -12   8  222.76   80.78
  -1 -12   8  225.87   75.54
   1  12  -8  208.37   77.91
  -1 -12   9 4589.14 1457.09
  -1 -12   9 4111.27 1442.77
   1  12  -9 4598.35 1443.72
  -1 -12  10  216.97   79.18
  -1 -12  10  214.09   74.00
   1  12 -10  203.67   78.62
  -1 -12  11   84.24   48.67
  -1 -12  11   85.98   37.50
   1  12 -11   93.43   47.38
  -1 -12  12  122.05   36.06
   1  12 -12    2.04   41.57
  -1 -11   1  225.20   67.02
  -1 -11   1    0.30   62.80
   1  11  -1  235.58   66.62
   1  11  -1  347.13   73.71
  -1 -11   2    0.06   20.31
  -1 -11   2    5.70   15.92
   1  11  -2    3.03   21.39
   1  11  -2   -5.65   31.07
  -1 -11   3  359.14  123.03
  -1 -11   3  351.10  120.17
   1  11  -3  369.01  122.07
  -1 -11   4  106.33   44.45
  -1 -11   4  113.86   40.06
   1  11  -4  109.25   43.47
  -1 -11   5   52.82   28.42
  -1 -11   5   52.40   21.70
   1  11  -5   38.78   26.13
  -1 -11   6    2.60   19.26
  -1 -11   6    1.43   13.00
   1  11  -6    9.22   19.19
  -1 -11   7  321.44  117.16
  -1 -11   7  346.39  113.89
   1  11  -7  347.61  115.37
  -1 -11   8 3795.92 1392.73
  -1 -11   8 4874.76 1379.99
   1  11  -8 3421.01 1380.05
  -1 -11   9  145.84   52.27
  -1 -11   9  145.18   47.84
   1  11  -9  112.81   50.20
  -1 -11  10   -3.70   23.14
  -1 -11  10    9.72   15.30
   1  11 -10   21.35   23.74
  -1 -11  11   22.20   26.65
  -1 -11  11   24.79   19.97
   1  11 -11   35.11   29.58
  -1 -11  12   42.00   32.25
  -1 -11  12   33.44   23.27
   1  11 -12   -3.51   27.28
  -1 -11  13   27.06   40.61
  -1 -11  13   38.17   29.48
   1  10  -1   16.91    9.28
  -1 -10   1   12.53   14.25
  -1 -10   1   12.74   16.48
   1  10  -1   42.17   35.90
  -1 -10   2  103.95   38.08
  -1 -10   2   94.53   35.55
   1  10  -2   98.62   38.84
  -1 -10   3  268.72   96.89
  -1 -10   3  221.98   94.13
   1  10  -3  414.89   96.42
  -1 -10   4   70.35   28.56
  -1 -10   4   58.28   24.22
   1  10  -4   65.43   27.99
  -1 -10   5 1709.59  589.92
  -1 -10   5 1634.91  583.83
   1  10  -5 2096.05  584.75
  -1 -10   6   20.06   17.42
  -1 -10   6   19.87   12.77
   1  10  -6   18.71   17.56
  -1 -10   7 2097.59  789.58
  -1 -10   7 2489.82  782.03
   1  10  -7 2450.03  782.52
  -1 -10   8  161.44   60.78
  -1 -10   8  179.57   58.15
   1  10  -8  165.57   59.61
  -1 -10   9  623.71  220.21
  -1 -10   9  650.30  217.00
   1  10  -9  694.62  217.81
  -1 -10  10  170.34   60.26
  -1 -10  10  181.66   57.48
   1  10 -10  138.47   59.48
  -1 -10  11    7.27   20.09
  -1 -10  11    2.34   18.63
   1  10 -11   -4.39   23.63
  -1 -10  12   85.52   33.45
  -1 -10  12   82.68   31.05
   1  10 -12   -1.94   29.50
  -1 -10  13  528.44  154.92
  -1 -10  13  710.97  152.19
   1  10 -13   -5.09  149.05
  -1 -10  14  233.24   88.90
  -1  -9   1   38.76   20.05
  -1  -9   1   47.93   17.84
   1   9  -1   43.50   20.09
   1   9  -1   29.02   22.50
  -1  -9   2 1057.44  167.71
  -1  -9   2 1214.14  409.08
   1   9  -2 1518.14  409.97
  -1  -9   3   86.84   32.64
  -1  -9   3   66.45   29.86
   1   9  -3  117.84   33.17
  -1  -9   4 2075.80  683.81
  -1  -9   4 1770.39  677.13
   1   9  -4 2558.44  677.95
  -1  -9   5  451.94   58.39
  -1  -9   5  464.28  152.12
   1   9  -5  455.98  152.95
  -1  -9   6 2709.43 1012.89
  -1  -9   6 3443.73 1003.75
   1   9  -6 2692.25 1003.94
  -1  -9   7  967.33  319.62
  -1  -9   7  939.65  315.97
   1   9  -7  972.24  316.50
  -1  -9   8 1021.16  350.40
  -1  -9   8 1046.32  346.56
   1   9  -8 1084.32  347.04
  -1  -9   9   12.40   15.24
  -1  -9   9   13.52   10.54
   1   9  -9   17.63   14.71
  -1  -9  10 1581.83  615.46
  -1  -9  10 1853.34  609.54
   1   9 -10 2137.69  610.15
  -1  -9  11  334.96  108.40
  -1  -9  11  318.23  106.47
   1   9 -11  291.16  107.54
  -1  -9  12  156.09   58.32
  -1  -9  12  169.58   56.34
   1   9 -12  149.76   57.33
  -1  -9  13   42.43   25.08
   1   9 -13   -6.64   18.22
  -1  -9  14  216.96   59.11
  -1  -9  14  190.71   59.44
   1   9 -14   20.61   56.78
  -1  -8   1  230.99   70.58
  -1  -8   1  212.68   68.83
   1   8  -1  157.19   69.28
  -1  -8   2    1.98    8.78
  -1  -8   2    0.24    5.36
  -1  -8   2   -0.32    7.72
   1   8  -2    2.03    5.55
   1   8  -2    2.17    8.63
   1   8  -3  131.48   16.97
  -1  -8   3  218.28   54.64
  -1  -8   3  197.94   53.35
  -1  -8   3  120.29   53.54
   1   8  -3  113.58   53.19
   1   8  -3  222.21   54.15
  -1  -8   4  419.44   94.10
  -1  -8   4  363.74   92.41
  -1  -8   4  226.66   92.38
   1   8  -4  177.99   93.72
   1   8  -4  179.97   92.02
   1   8  -4  418.82   93.14
  -1  -8   5 1469.72  410.46
  -1  -8   5 1095.12  410.35
  -1  -8   5 1830.39  406.51
  -1  -8   5 1071.68  406.27
   1   8  -5  974.40  410.19
   1   8  -5  739.15  405.94
   1   8  -5 2028.08  407.10
  -1  -8   6   23.64    9.45
  -1  -8   6   11.83    9.49
  -1  -8   6   23.21    7.38
  -1  -8   6    8.14    8.21
   1   8  -6    6.71    9.96
   1   8  -6    8.80    6.54
   1   8  -6   19.50    9.82
  -1  -8   7  307.25   65.07
  -1  -8   7  135.77   64.55
  -1  -8   7  290.97   63.51
  -1  -8   7  133.66   63.23
   1   8  -7  107.81   64.23
   1   8  -7  112.63   62.80
   1   8  -7  370.04   64.47
  -1  -8   8   11.95    9.88
  -1  -8   8    1.10    6.73
   1   8  -8    6.05    8.68
  -1  -8   9   10.03   10.17
  -1  -8   9   12.60    9.18
   1   8  -9   11.17   10.85
  -1  -8  10   68.94   25.80
  -1  -8  10   68.78   25.24
   1   8 -10   61.87   27.96
  -1  -8  11   63.05   27.16
  -1  -8  11   77.67   27.17
   1   8 -11   49.23   26.68
  -1  -8  12   39.72   24.92
  -1  -8  12   74.21   24.81
   1   8 -12   42.19   23.41
  -1  -8  13  213.47   59.95
  -1  -8  13  256.52   58.45
   1   8 -13   -3.11   59.20
  -1  -8  14  123.40   32.26
  -1  -8  14   86.55   33.94
   1   8 -14   -6.79   33.77
  -1  -7   1   75.90   25.06
  -1  -7   1  104.70   24.04
  -1  -7   1   51.06   24.20
   1   7  -1   62.01   25.75
   1   7  -1   48.76   23.61
   1   7  -1   82.91   24.53
   1   7  -2 1886.23  266.26
  -1  -7   2 2307.51  643.94
  -1  -7   2 2309.73  638.10
  -1  -7   2 1649.17  637.98
   1   7  -2 1442.71  637.79
   1   7  -2 2360.87  638.31
  -1  -7   3  225.32   70.38
  -1  -7   3  304.65   69.32
  -1  -7   3  180.64   69.25
   1   7  -3  171.78   70.39
   1   7  -3  127.60   68.90
   1   7  -3  292.34   69.60
  -1  -7   4 1273.15  408.03
  -1  -7   4 1422.61  404.13
  -1  -7   4 1056.39  404.09
   1   7  -4 1118.23  408.07
   1   7  -4 1117.42  403.94
   1   7  -4 1406.57  404.32
  -1  -7   5    1.94    3.53
  -1  -7   5    3.01    7.36
  -1  -7   5    3.04    3.55
  -1  -7   5   -1.64    6.27
   1   7  -5   -1.50    7.95
   1   7  -5    4.56    5.01
   1   7  -5    6.02    5.37
  -1  -7   6 2054.16  618.31
  -1  -7   6 1554.55  618.17
  -1  -7   6 2425.07  612.68
  -1  -7   6 2160.10  612.84
   1   7  -6 1239.71  618.07
   1   7  -6 1418.14  612.43
   1   7  -6 2374.80  612.94
  -1  -7   7  292.28   75.26
  -1  -7   7  193.62   75.04
  -1  -7   7  285.93   73.89
  -1  -7   7  227.62   74.15
   1   7  -7  131.48   74.66
   1   7  -7  175.82   73.70
   1   7  -7  310.53   74.40
  -1  -7   8  843.62  187.63
  -1  -7   8  390.41  187.22
  -1  -7   8  771.21  185.28
  -1  -7   8  532.18  185.22
   1   7  -8  508.03  187.38
   1   7  -8  284.32  184.75
   1   7  -8  730.23  185.49
  -1  -7   9  190.30   38.71
  -1  -7   9   72.04   37.16
  -1  -7   9  202.92   37.10
  -1  -7   9   64.83   37.21
   1   7  -9   50.68   36.98
   1   7  -9   89.44   36.63
   1   7  -9  177.39   37.38
  -1  -7  10  291.77  102.03
  -1  -7  10  307.18  100.46
   1   7 -10  307.57  100.94
  -1  -7  11  931.65  372.80
  -1  -7  11 1104.04  369.32
   1   7 -11 1382.52  370.28
  -1  -7  12   26.12   14.90
  -1  -7  12   21.89   12.19
   1   7 -12   25.75   17.00
  -1  -7  13   20.62   14.31
  -1  -7  13    9.61   23.09
   1   7 -13    7.58   16.97
  -1  -7  14   10.57   15.70
  -1  -7  14   10.82   14.72
   1   7 -14    0.26   19.76
  -1  -6   1 2758.82  782.72
  -1  -6   1 2257.79  775.70
  -1  -6   1 2422.53  775.79
   1   6  -1 2709.58  782.83
   1   6  -1 1884.49  775.56
   1   6  -1 2384.56  775.84
   1   6  -2   81.39    6.00
  -1  -6   2   86.95   25.12
  -1  -6   2   65.38   24.23
  -1  -6   2   67.86   24.62
   1   6  -2   59.58   24.32
   1   6  -2   77.81   24.55
  -1  -6   3 2235.25  804.90
  -1  -6   3 2575.54  797.82
  -1  -6   3 2475.74  797.93
   1   6  -3 2238.28  804.99
   1   6  -3 2498.32  797.80
   1   6  -3 2475.71  797.90
  -1  -6   4  545.36  180.48
  -1  -6   4  619.86  178.57
  -1  -6   4  463.41  178.65
   1   6  -4  539.00  180.65
   1   6  -4  440.36  178.51
   1   6  -4  622.25  178.73
  -1  -6   5 2357.50  735.44
  -1  -6   5 2300.12  728.87
  -1  -6   5 2311.90  729.00
   1   6  -5 1854.05  735.42
   1   6  -5 2070.86  728.85
   1   6  -5 2443.50  729.07
  -1  -6   6   12.81    7.97
  -1  -6   6    7.39    9.47
  -1  -6   6   21.13    7.09
  -1  -6   6   23.19    8.15
   1   6  -6    4.99    8.19
   1   6  -6   17.98    7.33
   1   6  -6   13.67    7.93
  -1  -6   7  389.03  112.09
  -1  -6   7  305.58  111.78
  -1  -6   7  481.36  110.51
  -1  -6   7  262.28  110.52
   1   6  -7  229.61  111.68
   1   6  -7  271.72  110.33
   1   6  -7  370.51  110.56
  -1  -6   8  241.06   47.36
  -1  -6   8   80.68   46.27
  -1  -6   8  194.34   46.13
   1   6  -8   67.94   46.20
   1   6  -8  141.34   46.04
   1   6  -8  169.39   46.16
  -1  -6   9    0.27    7.27
  -1  -6   9    1.78    6.71
  -1  -6   9   -1.82    7.28
   1   6  -9    0.16    5.78
   1   6  -9    2.73    8.33
   1   6  -9    1.44    8.40
  -1  -6  10   14.45    9.40
  -1  -6  10    7.95    7.52
  -1  -6  10   22.37    7.71
  -1  -6  10    5.10    7.06
   1   6 -10    1.85    7.76
   1   6 -10    8.45    8.46
   1   6 -10   14.77    9.27
  -1  -6  11  122.06   43.76
  -1  -6  11  127.64   41.93
   1   6 -11  117.87   43.29
  -1  -6  12  155.47   44.75
  -1  -6  12  100.67   42.81
  -1  -6  13  573.35  134.35
  -1  -6  13  342.97  131.93
   1   6 -13  327.77  131.98
  -1  -6  14  104.74   40.30
  -1  -6  15  128.28   49.15
  -1  -5   1   22.74    9.11
  -1  -5   1   24.89    8.60
  -1  -5   1   19.20    8.77
   1   5  -1   23.96    9.42
   1   5  -1   18.51    8.21
   1   5  -1   23.16    8.61
  -1  -5   2 3400.48 1264.32
  -1  -5   2 3947.95 1264.48
   1   5  -2 3688.83 1275.43
   1   5  -2 3591.92 1264.36
   1   5  -2 4777.97 1264.52
  -1  -5   3  780.31  269.44
  -1  -5   3  824.78  266.82
  -1  -5   3  823.87  266.92
   1   5  -3  865.30  269.62
   1   5  -3  782.24  266.83
   1   5  -3  782.68  266.88
  -1  -5   4  738.43  250.57
  -1  -5   4  761.24  248.05
  -1  -5   4  721.48  248.13
   1   5  -4  725.72  250.67
   1   5  -4  701.72  248.05
   1   5  -4  879.14  248.21
  -1  -5   5  313.15  107.01
  -1  -5   5  328.42  105.57
  -1  -5   5  310.23  105.71
   1   5  -5  273.36  106.99
   1   5  -5  294.84  105.59
   1   5  -5  411.14  105.85
  -1  -5   6  122.75   37.02
  -1  -5   6  104.39   36.84
  -1  -5   6  116.67   35.94
  -1  -5   6   99.60   36.11
   1   5  -6   88.19   36.63
   1   5  -6  100.10   35.95
   1   5  -6  127.13   36.21
  -1  -5   7    9.17    6.32
  -1  -5   7    9.68    5.07
  -1  -5   7    8.10    4.53
  -1  -5   7    4.11    6.44
   1   5  -7    6.16    5.40
   1   5  -7    6.65    4.82
   1   5  -7    6.74    5.09
  -1  -5   8  573.87  143.30
  -1  -5   8  427.89  142.99
  -1  -5   8  493.31  141.27
  -1  -5   8  394.11  141.30
   1   5  -8  347.79  142.77
   1   5  -8  357.45  141.15
  -1  -5   9  131.22   31.55
  -1  -5   9   59.29   30.13
  -1  -5   9  110.43   29.81
  -1  -5   9  119.14   30.51
   1   5  -9   46.87   29.89
   1   5  -9   81.79   29.95
   1   5  -9  121.89   30.53
  -1  -5  10    9.87   10.38
  -1  -5  10    3.91    7.57
  -1  -5  10   17.03    8.46
  -1  -5  10   11.11    8.18
   1   5 -10    5.17   10.16
  -1  -5  11  360.89  105.09
  -1  -5  11  322.97  103.23
  -1  -5  11  192.20  103.31
   1   5 -11  389.84  105.65
  -1  -5  12 2467.86  671.27
  -1  -5  12 1503.87  664.55
   1   5 -12 2465.71  671.90
   1   5 -12 2006.46  664.77
  -1  -5  13   94.59   27.76
  -1  -5  13   26.65   25.49
   1   5 -13  113.28   31.20
  -1  -5  14  794.94  266.65
  -1  -4   1 2284.66  910.50
  -1  -4   1 3416.37  902.68
  -1  -4   1 2882.52  902.70
   1   4  -1 2750.36  910.58
   1   4  -1 2843.67  902.65
   1   4  -1 2242.74  902.61
  -1  -4   2  765.77  253.09
  -1  -4   2  759.23  250.62
  -1  -4   2  764.64  250.68
   1   4  -2  722.12  250.62
   1   4  -2  791.95  250.69
  -1  -4   3 2191.07  704.29
  -1  -4   3 2146.58  698.05
  -1  -4   3 1988.65  698.10
   1   4  -3 2497.94  704.52
   1   4  -3 2074.96  698.07
   1   4  -3 1807.09  698.06
  -1  -4   4    1.75    4.07
  -1  -4   4    0.54    4.45
  -1  -4   4    2.40    2.99
  -1  -4   4    1.26    3.92
   1   4  -4    4.16    5.15
   1   4  -4    1.69    3.65
   1   4  -4    3.44    4.14
  -1  -4   5 1480.37  524.08
  -1  -4   5 1758.95  524.17
  -1  -4   5 1522.88  519.24
  -1  -4   5 1654.49  519.38
   1   4  -5 1348.79  524.01
   1   4  -5 1551.96  519.28
   1   4  -5 1797.24  519.38
  -1  -4   6   73.31   22.97
  -1  -4   6   66.07   22.76
  -1  -4   6   85.81   21.76
  -1  -4   6   58.80   21.92
   1   4  -6   68.99   23.03
   1   4  -6   47.27   21.86
   1   4  -6   47.84   21.71
  -1  -4   7    1.49    6.65
  -1  -4   7    4.34    5.76
  -1  -4   7    3.76    4.44
   1   4  -7    2.47    5.09
   1   4  -7    7.19    4.23
  -1  -4   8  705.99  182.77
  -1  -4   8  426.20  182.17
  -1  -4   8  778.25  180.52
  -1  -4   8  609.99  180.52
   1   4  -8  365.88  182.05
   1   4  -8  666.56  182.77
   1   4  -8  457.03  180.33
   1   4  -8  534.73  180.42
  -1  -4   9  126.27   31.21
  -1  -4   9   57.47   29.98
  -1  -4   9   96.22   29.33
  -1  -4   9   81.64   29.64
   1   4  -9   47.38   29.87
   1   4  -9  148.34   31.32
   1   4  -9   50.52   29.22
   1   4  -9  116.00   29.65
  -1  -4  10   12.21   10.30
  -1  -4  10    2.91    6.05
   1   4 -10    0.96    5.15
   1   4 -10    3.62   10.48
   1   4 -10    2.35    9.08
   1   4 -10   -1.06    6.13
  -1  -4  11  599.73  158.89
  -1  -4  11  349.41  156.66
   1   4 -11  521.00  158.95
   1   4 -11  438.61  156.55
  -1  -4  12   92.09   27.35
  -1  -4  12   54.76   25.08
   1   4 -12   80.01   26.34
   1   4 -12   55.93   25.28
  -1  -4  13 1382.49  425.23
   1   4 -13 1157.95  425.01
  -1  -4  14  138.22   35.52
   1   4 -14    7.85   36.11
  -1  -3   1  230.95   77.17
  -1  -3   1  234.27   76.20
  -1  -3   1  227.38   76.33
   1   3  -1  235.66   76.24
   1   3  -1  222.20   76.24
  -1  -3   2 2528.79  851.97
  -1  -3   2 2503.11  844.54
  -1  -3   2 2940.31  844.66
   1   3  -2 2757.40  852.08
   1   3  -2 2461.14  844.55
   1   3  -2 2290.05  844.56
  -1  -3   3  266.34   94.49
  -1  -3   3  295.65   93.29
  -1  -3   3  306.09   93.46
   1   3  -3  275.26   94.62
   1   3  -3  288.77   93.39
   1   3  -3  262.26   93.34
  -1  -3   4  934.56  288.83
  -1  -3   4  867.66  288.87
  -1  -3   4  794.85  285.91
  -1  -3   4 1075.46  286.12
   1   3  -4  726.64  288.78
   1   3  -4  885.80  286.01
   1   3  -4  864.88  285.98
  -1  -3   5    8.33    5.59
  -1  -3   5    4.72    4.56
  -1  -3   5    5.37    3.18
  -1  -3   5    3.58    5.16
   1   3  -5    3.59    5.86
   1   3  -5    5.58    5.42
   1   3  -5    6.23    3.45
  -1  -3   6  122.26   39.31
  -1  -3   6  110.37   39.12
  -1  -3   6  124.39   38.47
   1   3  -6   78.43   38.95
   1   3  -6  114.51   39.23
   1   3  -6  111.80   38.29
   1   3  -6  143.75   38.29
  -1  -3   7   82.91   26.25
  -1  -3   7   60.61   25.60
  -1  -3   7   81.96   25.08
  -1  -3   7   69.83   25.20
   1   3  -7   55.34   25.47
   1   3  -7   85.26   26.44
   1   3  -7   96.30   25.31
  -1  -3   8   13.97    6.84
  -1  -3   8    5.46    5.08
  -1  -3   8    7.95    4.54
   1   3  -8    2.92    4.16
   1   3  -8    8.79    6.80
   1   3  -8    7.22    5.66
   1   3  -8    6.56    4.70
  -1  -3   9  708.35  203.16
  -1  -3   9  510.64  202.91
  -1  -3   9  555.31  200.90
   1   3  -9  453.39  202.75
   1   3  -9  724.01  203.30
   1   3  -9  629.69  200.86
   1   3  -9  742.53  200.87
  -1  -3  10 1017.31  291.20
  -1  -3  10  557.22  290.69
  -1  -3  10  983.82  288.00
  -1  -3  10 1080.32  288.29
   1   3 -10  556.81  290.59
   1   3 -10 1093.09  291.36
   1   3 -10  928.60  288.19
   1   3 -10 1124.62  288.14
  -1  -3  11   29.31   11.68
  -1  -3  11   21.39    8.92
   1   3 -11   43.61   15.16
   1   3 -11   11.40    9.94
   1   3 -11   15.53    9.63
  -1  -3  12   58.86   22.20
   1   3 -12   45.77   22.95
  -1  -3  13    4.53   17.66
   1   3 -13    2.88   14.50
  -1  -3  14  397.29   70.80
   1   3 -14   -5.80   68.83
  -1  -2   1  202.07   69.09
  -1  -2   1  169.11   68.17
  -1  -2   1  223.92   68.29
   1   2  -1  242.41   68.26
   1   2  -1  214.43   68.25
  -1  -2   2  946.76  330.04
  -1  -2   2 1075.19  326.96
  -1  -2   2 1007.47  327.00
   1   2  -2  965.18  330.10
   1   2  -2 1038.61  326.97
   1   2  -2  883.88  326.96
  -1  -2   3  390.19  157.51
  -1  -2   3  434.88  157.48
  -1  -2   3  517.02  155.75
  -1  -2   3  600.28  155.84
   1   2  -3  421.52  157.50
   1   2  -3  509.16  155.76
   1   2  -3  421.17  155.74
  -1  -2   4  452.85  134.48
  -1  -2   4  423.66  134.53
  -1  -2   4  382.13  132.78
  -1  -2   4  454.15  132.87
   1   2  -4  433.67  134.53
   1   2  -4  375.02  134.42
   1   2  -4  359.53  132.78
   1   2  -4  384.93  132.81
  -1  -2   5  225.02   62.87
  -1  -2   5  145.19   62.62
  -1  -2   5  208.35   61.76
  -1  -2   5  193.50   61.84
   1   2  -5  142.69   62.54
   1   2  -5  242.42   62.94
   1   2  -5  210.79   61.80
   1   2  -5  167.10   61.78
  -1  -2   6  839.73  294.78
  -1  -2   6  871.27  294.77
  -1  -2   6  911.66  291.91
  -1  -2   6  868.54  292.01
   1   2  -6  908.23  294.70
   1   2  -6  902.66  294.90
   1   2  -6  827.56  291.94
   1   2  -6  926.37  291.93
  -1  -2   7    8.93    5.22
  -1  -2   7    6.07    4.59
  -1  -2   7   10.70    4.45
  -1  -2   7    8.58    6.49
   1   2  -7    9.58    4.56
   1   2  -7   10.07    5.17
   1   2  -7    7.97    4.41
   1   2  -7    9.70    4.56
  -1  -2   8    1.07    3.86
  -1  -2   8    0.23    3.95
  -1  -2   8    3.45    2.77
  -1  -2   8    1.22    6.64
   1   2  -8   -2.75    4.45
   1   2  -8    2.01    4.35
   1   2  -8   -0.03    3.81
   1   2  -8    4.10    2.71
  -1  -2   9 4235.43 1162.41
  -1  -2   9 3153.25 1162.18
  -1  -2   9 3031.85 1152.08
   1   2  -9 2827.65 1162.01
   1   2  -9 4049.67 1162.49
   1   2  -9 3839.89 1152.08
   1   2  -9 3704.19 1152.00
  -1  -2  10   13.66    7.05
  -1  -2  10    9.67    9.67
  -1  -2  10   10.54    8.75
   1   2 -10   11.35    7.36
   1   2 -10   20.33    7.69
   1   2 -10   13.66    6.43
  -1  -2  11  686.01  224.91
   1   2 -11  659.17  224.97
  -1  -2  12  234.41   79.17
   1   2 -12  232.60   79.40
  -1  -2  13  386.92   69.31
   1   2 -13   -0.67   68.20
  -1  -2  14   25.35   18.12
   1   2 -14    5.52   20.43
  -1  -1   1   42.41   14.15
  -1  -1   1   41.97   13.74
  -1  -1   1   38.25   13.78
   1   1  -1   39.19   14.16
   1   1  -1   47.92   13.74
   1   1  -1   36.27   13.74
  -1  -1   2  118.30   37.34
  -1  -1   2  113.52   37.35
  -1  -1   2  111.08   36.59
  -1  -1   2  110.45   36.61
   1   1  -2  112.62   37.40
   1   1  -2  101.27   36.59
   1   1  -2  111.07   36.63
  -1  -1   3  582.94  197.01
  -1  -1   3  601.30  197.01
  -1  -1   3  542.05  194.91
  -1  -1   3  563.12  194.93
   1   1  -3  586.64  196.93
   1   1  -3  649.53  197.08
   1   1  -3  631.87  194.92
  -1  -1   4  870.18  194.89
  -1  -1   4  527.65  194.51
  -1  -1   4  635.63  192.55
   1   1  -4  532.56  194.46
   1   1  -4  797.00  194.92
   1   1  -4  511.95  192.53
   1   1  -4  469.93  192.52
  -1  -1   5  127.79   42.38
  -1  -1   5  123.95   42.36
  -1  -1   5  145.08   41.61
  -1  -1   5  116.65   41.65
   1   1  -5  113.18   42.26
   1   1  -5  132.08   42.44
   1   1  -5  118.27   41.59
  -1  -1   6   21.96    8.25
  -1  -1   6   22.89    8.18
  -1  -1   6   23.01    7.42
  -1  -1   6   25.49    7.70
   1   1  -6   21.55    8.06
   1   1  -6   23.06    8.53
   1   1  -6   16.48    7.48
   1   1  -6   18.36    7.43
  -1  -1   7   27.75   10.29
  -1  -1   7   26.22   10.24
  -1  -1   7   27.37    9.41
  -1  -1   7   24.26    9.78
   1   1  -7   24.13   10.13
   1   1  -7   35.45   10.45
   1   1  -7   26.74    9.62
  -1  -1   8  635.41  204.84
  -1  -1   8  584.33  204.95
  -1  -1   8  613.54  202.64
  -1  -1   8  599.84  202.81
   1   1  -8  563.97  204.78
   1   1  -8  639.21  204.96
   1   1  -8  615.73  202.73
   1   1  -8  657.69  202.65
  -1  -1   9   79.47   25.44
  -1  -1   9   68.15   26.62
   1   1  -9   69.53   25.57
   1   1  -9   74.72   25.39
  -1  -1  10 2540.38  671.03
  -1  -1  10 1539.45  671.02
   1   1 -10 1845.70  670.90
  -1  -1  11    5.33   10.84
   1   1 -11    5.57   10.89
   1   1 -12  864.49  288.94
  -1  -1  13  263.29   48.27
   1   1 -13    3.83   46.82
  -1   0   2   31.89    8.47
  -1   0   2   23.27    8.33
  -1   0   2   23.08    7.95
  -1   0   2   21.74    7.96
   1   0  -2   21.47    8.24
   1   0  -2   33.75    8.61
   1   0  -2   22.57    7.98
   1   0  -2   20.87    7.92
  -1   0   3 1905.61  615.96
  -1   0   3 1817.29  610.48
  -1   0   3 1815.91  610.48
   1   0  -3 1902.36  615.89
   1   0  -3 1807.87  615.97
  -1   0   4   76.40   24.14
  -1   0   4   75.21   24.22
  -1   0   4   67.67   23.59
  -1   0   4   70.51   23.61
   1   0  -4   71.06   24.10
   1   0  -4   73.63   24.18
   1   0  -4   72.68   23.60
   1   0  -4   64.94   23.56
  -1   0   5  742.96  275.88
  -1   0   5 1026.45  276.05
  -1   0   5  784.32  273.22
  -1   0   5  685.49  273.23
   1   0  -5  924.90  275.88
   1   0  -5  707.58  275.92
   1   0  -5  920.24  273.25
  -1   0   6 1906.01  628.45
  -1   0   6 1984.36  628.57
   1   0  -6 2006.04  628.43
   1   0  -6 1907.60  628.48
   1   0  -6 1714.29  622.81
   1   0  -6 1797.45  622.78
  -1   0   7  357.41  126.06
  -1   0   7  397.66  126.28
   1   0  -7  388.16  126.18
   1   0  -7  384.91  126.16
   1   0  -7  368.62  124.58
  -1   0   8   50.25   17.36
  -1   0   8   47.73   18.78
   1   0  -8   49.08   17.65
   1   0  -8   49.23   17.39
  -1   0   9  650.56  194.70
  -1   0   9  554.74  195.02
   1   0  -9  434.32  194.67
   1   0  -9  698.93  194.86
  -1   0  10  666.79  243.92
   1   0 -10  808.10  244.27
  -1   0  11  449.44  162.74
   1   0 -11  530.84  162.99
  -1   0  12   19.14   10.98
   1   0 -12    2.39   10.17
  -1   0  13  120.65   27.11
   1   0 -13    0.49   24.24
  -1   1   1    4.95    1.73
  -1   1   1    3.33    1.66
  -1   1   1    3.32    1.52
   1  -1  -1    2.71    1.51
   1  -1  -1    4.11    1.65
  -1   1   2    7.58    3.10
  -1   1   2    7.87    3.17
  -1   1   2    7.43    3.00
  -1   1   2    7.01    2.88
   1  -1  -2    5.24    3.00
   1  -1  -2    5.98    2.86
   1  -1  -2   14.25    2.92
  -1   1   3 1796.19  574.09
  -1   1   3 1603.89  574.17
  -1   1   3 1688.49  569.02
  -1   1   3 1721.48  569.01
   1  -1  -3 1634.57  574.10
   1  -1  -3 1736.50  574.18
   1  -1  -3 1831.75  569.01
   1  -1  -3 1755.61  569.01
  -1   1   4  433.70  159.30
  -1   1   4  449.92  159.38
  -1   1   4  506.00  157.66
   1  -1  -4  493.15  159.29
   1  -1  -4  532.44  159.37
   1  -1  -4  425.61  157.61
   1  -1  -4  511.79  157.63
  -1   1   5   18.40    8.90
  -1   1   5   24.21    9.21
   1  -1  -5   34.18    9.11
   1  -1  -5   26.65    8.50
   1  -1  -5   19.96    8.32
  -1   1   6 2509.39  796.12
  -1   1   6 2470.22  796.24
  -1   1   6 2109.03  789.02
   1  -1  -6 2562.14  796.14
   1  -1  -6 2586.28  796.20
   1  -1  -6 2137.90  788.99
  -1   1   7  176.68   59.74
  -1   1   7  179.30   60.00
   1  -1  -7  177.66   59.90
  -1   1   8 1500.43  551.97
  -1   1   8 2280.63  552.56
   1  -1  -8 1727.02  552.25
   1  -1  -8 1372.20  552.01
  -1   1   9   14.01    9.33
  -1   1   9    9.87   13.26
   1  -1  -9    7.70   11.35
   1  -1  -9   52.65   10.26
  -1   1  10  328.54  107.40
   1  -1 -10  310.04  107.42
  -1   1  11   14.20   12.19
   1  -1 -11   16.13   11.37
   1  -1 -12    1.08    8.45
  -1   2   1  150.69   63.24
  -1   2   1  183.66   62.42
  -1   2   1  228.17   62.42
   1  -2  -1  196.83   62.42
   1  -2  -1  187.13   62.38
  -1   2   2 1215.38  444.80
  -1   2   2 1046.98  444.86
  -1   2   2 1336.48  440.80
   1  -2  -2 1541.12  440.83
   1  -2  -2 1527.08  440.82
  -1   2   3  487.01  168.56
  -1   2   3  446.40  168.60
  -1   2   3  543.40  166.86
  -1   2   3  465.29  166.80
   1  -2  -3  431.43  168.59
   1  -2  -3  474.56  166.82
   1  -2  -3  681.46  166.86
  -1   2   4   27.91   11.12
  -1   2   4   29.59   11.22
  -1   2   4   33.18   10.80
  -1   2   4   32.54   10.66
   1  -2  -4   35.10   11.28
   1  -2  -4   32.40   10.71
   1  -2  -4   31.67   10.66
  -1   2   5  351.62  122.71
  -1   2   5  367.53  122.87
  -1   2   5  367.89  121.37
  -1   2   5  370.30  121.33
   1  -2  -5  339.97  122.79
   1  -2  -5  404.73  121.35
   1  -2  -5  373.24  121.32
  -1   2   6   64.85   21.07
  -1   2   6   61.92   21.25
  -1   2   6   58.38   20.68
   1  -2  -6   65.85   21.21
   1  -2  -6   48.64   20.41
   1  -2  -6   69.61   20.63
  -1   2   7 4980.71 2287.07
  -1   2   7 8558.98 2287.55
   1  -2  -7 7943.76 2287.29
  -1   2   8    2.72    4.44
  -1   2   8    2.18    7.98
   1  -2  -8    6.54    5.10
  -1   2   9  423.75  143.49
   1  -2  -9  435.00  143.64
  -1   2  10  842.76  274.59
   1  -2 -10  800.79  274.68
  -1   2  11   80.33   19.44
   1  -2 -11   -0.07   16.62
   1  -2 -12   -8.58   12.08
  -1   3   1  307.38  118.12
  -1   3   1  341.88  116.83
  -1   3   1  408.87  116.79
   1  -3  -1  293.44  118.06
   1  -3  -1  405.06  116.79
   1  -3  -1  360.07  116.82
  -1   3   2  482.48  160.44
  -1   3   2  396.55  160.55
  -1   3   2  564.85  158.93
  -1   3   2  452.40  158.83
   1  -3  -2  423.18  160.49
   1  -3  -2  575.65  158.87
  -1   3   3  202.17   71.05
  -1   3   3  208.71   71.19
  -1   3   3  193.18   70.19
  -1   3   3  222.21   70.11
   1  -3  -3  221.00   71.15
   1  -3  -3  219.86   70.13
  -1   3   4    6.89    3.33
  -1   3   4    6.24    4.16
  -1   3   4    4.70    3.90
  -1   3   4    7.50    2.91
   1  -3  -4    5.61    3.55
   1  -3  -4    5.11    2.86
  -1   3   5   15.15    5.60
  -1   3   5   16.29    6.13
  -1   3   5   10.09    4.98
   1  -3  -5   13.06    5.68
   1  -3  -5   12.54    5.19
   1  -3  -5   10.22    4.70
  -1   3   6 3014.58  831.44
  -1   3   6 3306.31  831.86
  -1   3   6 2297.08  824.17
  -1   3   6 1867.88  824.01
   1  -3  -6 2799.71  831.52
   1  -3  -6 1782.95  824.00
  -1   3   7  490.28  171.36
  -1   3   7  440.85  171.78
   1  -3  -7  589.41  171.57
  -1   3   8  261.09   86.28
   1  -3  -8  251.31   86.39
  -1   3   9   92.90   33.79
   1  -3  -9  101.56   34.04
  -1   3  10   14.40   11.59
   1  -3 -10    3.82    9.11
  -1   3  11    8.76   10.23
  -1   4   1  700.76  324.08
  -1   4   1 1413.88  321.22
  -1   4   1  893.48  320.97
   1  -4  -1 1013.15  324.05
   1  -4  -1  973.26  321.11
  -1   4   2  192.32   74.80
  -1   4   2  221.30   75.03
  -1   4   2  228.03   74.11
  -1   4   2  247.94   73.94
   1  -4  -2  204.91   74.89
   1  -4  -2  220.90   73.96
   1  -4  -2  257.43   74.01
  -1   4   3 2511.51  857.99
  -1   4   3 2543.02  858.15
  -1   4   3 2407.19  850.61
  -1   4   3 2525.31  850.46
   1  -4  -3 2512.32  858.09
   1  -4  -3 2737.28  850.56
   1  -4  -3 2814.64  850.56
  -1   4   4   51.71   17.66
  -1   4   4   47.76   18.08
  -1   4   4   43.84   17.12
   1  -4  -4   51.79   17.80
   1  -4  -4   55.33   17.46
   1  -4  -4   56.10   17.38
  -1   4   5 2396.00  828.23
  -1   4   5 2196.41  828.55
   1  -4  -5 2328.54  828.35
   1  -4  -5 2894.07  821.10
   1  -4  -5 2610.75  820.96
  -1   4   6  151.50   54.81
  -1   4   6  223.55   56.17
  -1   4   6  128.64   54.06
   1  -4  -6  166.15   54.97
   1  -4  -6  170.77   54.51
  -1   4   7   21.51    8.29
   1  -4  -7   17.76    8.79
  -1   4   8   74.32   26.78
   1  -4  -8   75.88   27.64
  -1   4   9   57.89   23.34
   1  -4  -9   55.80   22.55
  -1   4  10   70.24   17.13
   1  -4 -10   -0.35   16.14
  -1   5   1  859.10  169.37
  -1   5   1 1206.27  409.47
  -1   5   1 1142.59  409.33
   1  -5  -1 1495.92  413.25
   1  -5  -1 1451.62  409.47
   1  -5  -1 1223.73  409.43
  -1   5   2 1074.08  346.70
  -1   5   2 1002.33  346.89
  -1   5   2 1038.82  343.63
  -1   5   2  962.21  343.44
   1  -5  -2 1007.96  346.77
   1  -5  -2 1214.40  343.59
   1  -5  -2 1033.12  343.52
  -1   5   3  160.40   50.52
  -1   5   3  157.29   50.92
  -1   5   3  125.93   49.92
  -1   5   3  151.46   50.01
   1  -5  -3  152.53   50.61
   1  -5  -3  127.27   49.82
   1  -5  -3  163.12   50.13
  -1   5   4 5488.18 2272.08
  -1   5   4 7638.27 2272.45
  -1   5   4 7664.98 2253.09
   1  -5  -4 8279.75 2272.23
   1  -5  -4 7429.68 2252.90
   1  -5  -4 5288.69 2252.73
  -1   5   5  397.39  145.69
  -1   5   5  534.69  146.62
   1  -5  -5  453.76  145.87
   1  -5  -5  528.05  144.56
   1  -5  -5  346.29  144.17
  -1   5   6  169.47   51.23
  -1   5   6  125.85   50.72
   1  -5  -6  175.42   51.42
   1  -5  -6  145.80   51.02
   1  -5  -6  138.38   50.52
  -1   5   7  223.63   74.93
   1  -5  -7  219.97   75.08
  -1   5   8  751.76  229.47
   1  -5  -8  608.22  229.52
  -1   5   9  109.23   24.29
   1  -5  -9    1.41   23.29
  -1   5  10   20.32   12.71
   1  -5 -10   -1.51   12.29
  -1   6   1  132.59   48.78
  -1   6   1  160.19   48.04
  -1   6   1  112.65   47.50
   1  -6  -1  145.61   48.53
   1  -6  -1  185.42   47.82
   1  -6  -1  141.08   47.89
  -1   6   2  196.77   61.48
  -1   6   2  185.86   61.78
  -1   6   2  175.98   61.01
  -1   6   2  175.15   60.37
   1  -6  -2  191.85   61.52
   1  -6  -2  187.80   60.64
   1  -6  -2  166.51   60.48
  -1   6   3 1856.83  571.58
  -1   6   3 1192.16  571.69
  -1   6   3 1798.61  566.84
  -1   6   3 1856.56  566.40
   1  -6  -3 1553.49  571.64
   1  -6  -3 1587.01  566.43
   1  -6  -3 1962.68  566.54
  -1   6   4   22.33    7.81
  -1   6   4   14.64   11.26
  -1   6   4   11.87    7.86
   1  -6  -4   15.08    8.08
   1  -6  -4   27.34   12.27
   1  -6  -4   12.84    7.78
  -1   6   5  362.42  113.19
  -1   6   5  391.86  113.93
   1  -6  -5  360.46  113.38
   1  -6  -5  380.64  112.46
   1  -6  -5  233.85  112.08
  -1   6   6    3.20    8.16
  -1   6   6    5.77   18.73
   1  -6  -6   -0.16    8.52
   1  -6  -6    4.90   10.88
  -1   6   7   18.75   10.46
   1  -6  -7   14.37    9.59
  -1   6   8  168.96   33.57
   1  -6  -8   -3.80   32.70
  -1   6   9    4.66   15.97
   1  -6  -9   -3.68   13.21
  -1   7   1  131.76   46.41
  -1   7   1  181.73   46.38
  -1   7   1  110.47   44.42
   1  -7  -1  153.02   45.67
   1  -7  -1  143.26   44.74
   1  -7  -1  117.90   44.68
  -1   7   2  853.56  219.91
  -1   7   2  520.77  220.00
  -1   7   2  852.30  218.52
   1  -7  -2  697.96  219.90
   1  -7  -2  744.62  217.66
   1  -7  -2  429.35  217.28
  -1   7   3  257.56   79.38
  -1   7   3  280.87   80.54
  -1   7   3  179.60   78.36
   1  -7  -3  301.71   79.65
   1  -7  -3  307.62   79.38
   1  -7  -3  183.91   78.97
  -1   7   4  431.78  129.45
  -1   7   4  403.26  129.72
   1  -7  -4  339.01  129.23
   1  -7  -4  371.71  128.35
  -1   7   5  634.16  201.00
  -1   7   5  533.82  200.62
   1  -7  -5  657.43  201.25
   1  -7  -5  490.56  199.36
  -1   7   6   13.31   11.79
   1  -7  -6    7.59   10.73
   1  -7  -6    7.63   16.56
  -1   7   7   69.46   17.22
   1  -7  -7    3.12   15.62
  -1   7   8  349.98  118.80
  -1   8   1 2825.66  608.94
  -1   8   1 2471.41  604.01
  -1   8   1 1023.33  602.78
   1  -8  -1 2656.20  609.06
   1  -8  -1 2674.16  603.65
   1  -8  -1 1054.40  602.85
  -1   8   2 1069.87  326.33
  -1   8   2  791.04  323.51
   1  -8  -2 1100.76  326.46
   1  -8  -2  859.62  323.19
  -1   8   3  886.38  267.00
  -1   8   3  724.60  265.63
   1  -8  -3  842.87  267.12
   1  -8  -3  673.44  264.33
  -1   8   4    5.39    9.16
  -1   8   4   12.00   24.78
   1  -8  -4    7.31   11.49
   1  -8  -4    4.09   14.03
  -1   8   5  129.53   37.39
  -1   8   5   90.54   46.39
   1  -8  -5  102.79   37.52
   1  -8  -5   54.78   38.47
  -1   8   6   15.70   12.10
   1  -8  -6    0.70   11.61
  -1   8   7    6.88   11.46
   1  -8  -7    6.83   10.05
  -1   9   1  156.22   52.18
  -1   9   1  161.14   55.24
   1  -9  -1  160.77   52.16
   1  -9  -1  120.62   50.56
  -1   9   2 1295.07  422.03
   1  -9  -2 1356.37  422.21
   1  -9  -2 1139.21  417.97
  -1   9   3    3.39   11.40
  -1   9   3    7.98   21.55
   1  -9  -3   -1.52   12.84
   1  -9  -3    3.40   18.37
  -1   9   4   92.09   25.93
  -1   9   4   65.83   46.79
   1  -9  -4   67.16   26.25
   1  -9  -4    2.40   27.12
  -1   9   5  275.27   54.46
   1  -9  -5    6.28   52.72
  -1  10   1  843.50  263.07
  -1  10   1  708.49  261.71
   1 -10  -1  774.29  263.14
   1 -10  -1  781.27  260.13
  -1  10   2  270.81   69.23
  -1  10   2  246.23   75.05
   1 -10  -2  263.76   69.71
   1 -10  -2    8.89   67.43
  -1  10   3  122.95   24.96
  -1  10   3  120.59   45.15
   1 -10  -3    6.70   22.55
   1 -10  -3   -9.68   26.71
  -1  10   4   50.59   18.90
   1 -10  -4   -0.58   18.60
  -1  11   1  112.84   40.73
  -1  11   1  109.00   54.68
   1 -11  -1   96.19   41.28
  -1  11   2    5.86   16.46
   1 -11  -2    3.96   15.28
   0 -13   3  153.14   59.63
   0  13  -3  118.17   59.68
   0 -13   4   -3.50   29.23
   0 -13   4    5.86   19.23
   0  13  -4  -11.77   28.52
   0 -13   5   54.52   36.97
   0 -13   5   37.65   24.07
   0  13  -5   78.24   33.83
   0 -13   6   32.68   33.44
   0 -13   6   41.25   20.95
   0  13  -6   46.89   30.15
   0 -13   7   11.91   32.85
   0 -13   7    5.21   15.33
   0  13  -7    1.55   25.01
   0 -13   8    2.06   34.15
   0 -13   8    7.83   15.39
   0  13  -8   12.04   32.11
   0 -13   9  383.86  125.53
   0 -13   9  269.61  117.21
   0  13  -9  455.73  124.34
   0 -13  10  122.50   53.25
   0 -13  10   90.76   38.54
   0  13 -10   89.46   53.16
   0 -12   1   13.59   27.32
   0 -12   1   -6.69   22.89
   0  12  -1   13.57   22.61
   0  12  -1   54.23   57.44
   0 -12   2  579.04  146.52
   0 -12   2    5.10  141.05
   0  12  -2  620.46  146.84
   0  12  -2  834.92  154.47
   0 -12   3  497.48  193.63
   0 -12   3  603.71  190.07
   0  12  -3  588.18  192.63
   0 -12   4   20.38   28.61
   0 -12   4   28.48   17.73
   0  12  -4   28.55   28.66
   0 -12   5  193.21   83.73
   0 -12   5  246.87   79.04
   0  12  -5  245.18   82.74
   0 -12   6  536.79  180.50
   0 -12   6  593.32  176.61
   0  12  -6  383.50  178.05
   0 -12   7  441.78  158.68
   0 -12   7  392.55  154.58
   0  12  -7  640.45  157.65
   0 -12   8  395.86   40.71
   0 -12   8  316.06  115.40
   0  12  -8  345.34  117.94
   0 -12   9   15.28   24.73
   0 -12   9    2.63   15.88
   0  12  -9   12.23   23.96
   0 -12  10    8.01   14.05
   0 -12  10    8.27   15.57
   0  12 -10   33.82   25.46
   0 -12  11   21.21   30.54
   0 -12  11   39.60   22.27
   0  12 -11   35.61   31.89
   0 -12  12 3954.64  910.40
   0 -12  12 3531.30  900.38
   0  12 -12    1.37  898.40
   0 -11   1 1028.59  237.36
   0 -11   1   -2.43  231.91
   0  11  -1 1071.28  237.38
   0  11  -1 1161.09  237.19
   0 -11   2   11.45   19.23
   0 -11   2    7.55   14.14
   0  11  -2   12.21   25.67
   0 -11   3  823.07  235.49
   0 -11   3  620.00  231.33
   0  11  -3  702.64  233.16
   0 -11   4  118.89   46.11
   0 -11   4  107.09   41.84
   0  11  -4  143.61   46.52
   0 -11   5  174.66   61.22
   0 -11   5  167.87   58.13
   0  11  -5  168.46   61.27
   0 -11   6   52.41   25.00
   0 -11   6   48.24   20.46
   0  11  -6   43.68   23.11
   0 -11   7   64.30   28.37
   0 -11   7   60.85   24.11
   0  11  -7   58.36   30.45
   0 -11   8  248.25   83.22
   0 -11   8  226.42   80.08
   0  11  -8  246.18   82.46
   0 -11   9  165.54   66.13
   0 -11   9  201.49   63.23
   0  11  -9  173.19   65.48
   0 -11  10  169.84   67.91
   0 -11  10  224.49   64.68
   0  11 -10  147.46   66.59
   0 -11  11  783.12  103.05
   0 -11  11  834.62  263.31
   0  11 -11  738.09  264.25
   0 -11  12    7.58   24.24
   0 -11  12    6.00   17.71
   0  11 -12   -9.27   26.15
   0 -11  13   39.48   34.96
   0 -11  13   32.36   26.08
   0  11 -13    0.42   37.04
   0 -10   1   78.03   31.38
   0 -10   1   77.14   29.04
   0  10  -1   75.39   29.70
   0  10  -1   82.99   33.22
   0 -10   2   10.28   17.19
   0 -10   2   16.64   11.92
   0  10  -2   15.33   16.90
   0 -10   3   81.81   33.75
   0 -10   3   86.48   30.35
   0  10  -3   84.83   32.38
   0 -10   4  309.08  100.34
   0 -10   4  292.07   98.09
   0  10  -4  278.93   98.90
   0 -10   5    3.02   14.14
   0 -10   5    8.94   10.03
   0  10  -5    4.31   14.16
   0 -10   6   33.36   19.87
   0 -10   6   36.72   16.43
   0  10  -6   47.48   20.93
   0 -10   7  733.08  276.58
   0 -10   7  973.61  273.43
   0  10  -7  656.69  273.91
   0 -10   8 1252.08  423.25
   0 -10   8 1233.30  418.63
   0  10  -8 1355.66  419.54
   0 -10   9  384.67  123.47
   0 -10   9  351.02  120.98
   0  10  -9  357.06  122.26
   0 -10  10 5689.52 1958.30
   0 -10  10 6258.24 1941.16
   0  10 -10 5506.86 1941.46
   0 -10  11  173.57   69.68
   0 -10  11  238.79   68.09
   0  10 -11  160.15   68.55
   0 -10  12    6.48   20.01
   0 -10  12    3.79   15.95
   0  10 -12   -1.83   22.62
   0 -10  13   10.67   24.88
   0 -10  13    8.91   22.03
   0  10 -13  -16.68   26.27
   0 -10  14  228.68   85.02
   0  -9   1  787.24  111.12
   0  -9   1  813.49  275.35
   0   9  -1  920.99  275.94
   0  -9   2   19.18   12.32
   0  -9   2   22.54    9.79
   0   9  -2   14.59   11.34
   0  -9   3   17.73    5.66
   0  -9   3   13.17    8.20
   0   9  -3   10.76    9.79
   0  -9   4  575.22  218.65
   0  -9   4  721.65  216.20
   0   9  -4  641.13  216.44
   0  -9   5   14.23   10.46
   0  -9   5   19.30    8.43
   0   9  -5   12.07    9.96
   0  -9   6  126.75   50.24
   0  -9   6  164.44   49.25
   0   9  -6  137.06   50.08
   0  -9   7  523.37  182.54
   0  -9   7  533.84  180.15
   0   9  -7  589.47  180.94
   0  -9   8    5.86   12.45
   0  -9   8    0.77    9.30
   0   9  -8    4.32   15.92
   0  -9   9 5358.16 1894.74
   0  -9   9 5806.63 1878.16
   0   9  -9 5904.67 1878.62
   0  -9  10  233.66   86.59
   0  -9  10  307.37   84.69
   0   9 -10  187.96   85.31
   0  -9  11  638.72  207.13
   0  -9  11  621.94  204.72
   0   9 -11  577.24  205.04
   0  -9  12  336.12  113.54
   0  -9  12  548.83  112.84
   0   9 -12    5.30  111.23
   0  -9  13  203.81   70.97
   0  -9  13  344.41   72.25
   0   9 -13   -1.10   68.70
   0  -9  14   61.60   29.52
   0  -8   1   11.63    8.67
   0  -8   1    2.28    6.34
   0  -8   1    2.34    5.55
   0   8  -1    0.40    8.44
   0   8  -1    3.34    3.96
   0  -8   2   38.28   13.39
   0  -8   2   49.01   12.56
   0  -8   2   15.68   11.53
   0   8  -2   20.50   14.04
   0   8  -2   39.34   13.51
   0  -8   3    0.89    4.38
   0  -8   3    1.53    5.70
   0  -8   3    1.78    4.43
   0   8  -3   -1.47    7.87
   0   8  -3    0.65    4.75
   0   8  -3    3.28    7.36
   0  -8   4  257.85   82.22
   0  -8   4  303.53   81.00
   0  -8   4  197.67   80.85
   0   8  -4  184.01   80.71
   0   8  -4  323.74   81.40
   0  -8   5  335.46   95.44
   0  -8   5  175.24   95.10
   0  -8   5  415.42   94.13
   0  -8   5  278.98   93.99
   0   8  -5  174.96   95.18
   0   8  -5  268.39   93.81
   0   8  -5  360.92   94.36
   0  -8   6 1345.52  267.16
   0  -8   6  637.51  266.72
   0  -8   6 1133.21  264.17
   0  -8   6  723.12  263.96
   0   8  -6  486.69  266.50
   0   8  -6  498.98  263.69
   0   8  -6 1107.55  264.46
   0  -8   7  356.78   81.38
   0  -8   7  175.79   80.79
   0  -8   7  372.39   79.89
   0  -8   7  255.42   79.84
   0   8  -7  132.45   80.57
   0   8  -7  161.31   79.43
   0   8  -7  360.33   80.50
   0  -8   8  182.72   55.41
   0  -8   8  212.74   53.86
   0  -8   8  111.66   53.90
   0   8  -8  104.69   53.60
   0   8  -8  264.91   54.98
   0  -8   9   10.91   11.04
   0  -8   9    7.20    7.49
   0   8  -9    8.58    9.83
   0  -8  10  916.23  289.72
   0  -8  10  876.09  286.65
   0   8 -10  782.62  286.83
   0  -8  11  295.15  112.08
   0  -8  11  362.28  110.88
   0   8 -11  342.90  112.15
   0  -8  12   30.35   15.24
   0  -8  12   15.30   17.34
   0   8 -12   23.50   19.38
   0  -8  13  386.96   89.79
   0  -8  13  330.45   89.11
   0   8 -13    1.73   87.74
   0  -8  14   44.86   22.91
   0  -7   1  595.07   76.71
   0  -7   1  710.94  191.02
   0  -7   1  428.43  190.72
   0   7  -1  531.17  193.09
   0   7  -1  680.31  191.25
   0  -7   2  331.43   95.92
   0  -7   2  382.06   94.70
   0  -7   2  240.25   94.44
   0   7  -2  252.13   95.92
   0   7  -2  204.20   94.34
   0   7  -2  359.53   94.95
   0  -7   3  161.05   49.89
   0  -7   3  169.82   49.00
   0  -7   3  135.19   48.99
   0   7  -3  124.88   50.29
   0   7  -3  126.53   48.75
   0   7  -3  173.47   49.33
   0  -7   4  291.90   88.55
   0  -7   4  252.16   88.70
   0  -7   4  376.90   87.43
   0  -7   4  218.83   87.22
   0   7  -4  221.48   88.64
   0   7  -4  196.55   87.02
   0   7  -4  329.47   87.62
   0  -7   5 2534.60  735.73
   0  -7   5 2937.26  729.18
   0  -7   5 2132.35  729.04
   0   7  -5 1742.24  735.57
   0   7  -5 1595.48  728.82
   0   7  -5 2842.25  729.34
   0  -7   6  278.04   75.76
   0  -7   6  215.02   75.67
   0  -7   6  316.62   74.52
   0  -7   6  226.65   74.41
   0   7  -6  150.69   75.31
   0   7  -6  157.19   74.10
   0   7  -6  326.57   74.86
   0  -7   7 1860.77  261.06
   0   7  -7 1739.89  260.80
   0  -7   7 1966.31  632.88
   0  -7   7 2175.24  627.08
   0  -7   7 2290.63  627.14
   0   7  -7 1408.89  626.80
   0   7  -7 2203.91  627.32
   0  -7   8  360.14   89.68
   0  -7   8  199.19   89.03
   0  -7   8  403.43   88.35
   0  -7   8  234.04   88.12
   0   7  -8  185.12   88.93
   0   7  -8  232.82   87.91
   0   7  -8  399.16   88.86
   0  -7   9  246.58   56.89
   0  -7   9  106.70   56.07
   0  -7   9  262.34   55.71
   0  -7   9  170.96   55.60
   0   7  -9   81.60   55.88
   0   7  -9  124.99   55.28
   0   7  -9  267.86   56.21
   0  -7  10  338.87  106.25
   0  -7  10  298.02  104.45
   0   7 -10  307.74  105.22
   0  -7  11   26.13   14.79
   0  -7  11   17.40   11.49
   0   7 -11   34.37   25.47
   0  -7  12    2.88   12.33
   0  -7  13  500.20  117.32
   0  -7  13  292.39  115.00
   0   7 -13  249.56  115.43
   0  -7  14  123.14   45.93
   0  -7  15   23.97   21.26
   0  -6   1   51.85   15.68
   0  -6   1   55.83   15.50
   0  -6   1   38.92   15.02
   0   6  -1   39.79   16.81
   0   6  -1   36.39   15.00
   0   6  -1   41.74   15.81
   0  -6   2   14.13    7.09
   0  -6   2   22.42    7.03
   0  -6   2   17.50    7.02
   0   6  -2   14.60    7.84
   0   6  -2    7.37    6.02
   0   6  -2   16.69    8.02
   0  -6   3    0.13    4.67
   0  -6   3    2.89    4.56
   0  -6   3   -0.16    4.69
   0   6  -3    6.33    6.46
   0   6  -3    0.75    3.67
   0   6  -3    3.22    5.78
   0  -6   4 1273.28  435.95
   0  -6   4 1341.99  436.03
   0  -6   4 1572.77  431.97
   0  -6   4 1156.56  431.88
   0   6  -4 1312.82  436.05
   0   6  -4 1125.87  431.77
   0   6  -4 1542.34  432.10
   0  -6   5   93.76   26.40
   0  -6   5   71.87   26.69
   0  -6   5   91.21   25.31
   0  -6   5   81.35   25.45
   0   6  -5   54.19   26.23
   0   6  -5   50.18   25.04
   0   6  -5   99.10   25.68
   0  -6   6 6164.82 1833.13
   0  -6   6 5032.17 1833.04
   0  -6   6 6301.06 1817.41
   0  -6   6 7277.06 1817.53
   0   6  -6 3854.76 1832.91
   0   6  -6 4331.85 1817.21
   0   6  -6 6869.17 1817.61
   0  -6   7  120.56   28.11
   0  -6   7   51.30   27.22
   0  -6   7  102.36   26.80
   0  -6   7   73.17   27.00
   0   6  -7   58.91   27.29
   0   6  -7   67.91   26.64
   0   6  -7  106.89   27.40
   0  -6   8 2651.72  545.45
   0  -6   8 1563.37  544.98
   0  -6   8 2072.04  540.01
   0  -6   8 1418.05  539.85
   0   6  -8 1182.63  544.78
   0   6  -8 1080.08  539.66
   0   6  -8 2276.69  540.33
   0  -6   9  469.21  105.12
   0  -6   9  210.86  104.10
   0  -6   9  503.56  103.45
   0  -6   9  298.55  103.30
   0   6  -9  159.11  103.93
   0   6  -9  357.29  103.05
   0   6  -9  371.55  103.47
   0  -6  10    8.45    9.91
   0  -6  10    4.33    7.40
   0  -6  10    0.54    7.52
   0   6 -10    0.18    7.62
   0   6 -10    8.77   14.41
   0  -6  11  185.71   58.77
   0  -6  11  156.20   57.86
   0   6 -11  163.40   59.33
   0   6 -11  177.06   58.34
   0  -6  12   99.91   31.38
   0  -6  12   62.24   28.80
   0   6 -12  106.13   31.79
   0   6 -12   61.94   29.56
   0  -6  13  246.74   54.12
   0  -6  13   47.74   51.07
   0   6 -13  235.39   54.74
   0  -6  14    5.29   20.44
   0   6 -14   -1.54   23.99
   0  -6  15    2.38   17.57
   0  -5   1   38.29   15.98
   0  -5   1   55.21   15.68
   0  -5   1   52.96   15.69
   0   5  -1   50.80   16.76
   0   5  -1   30.94   15.28
   0   5  -1   51.51   16.65
   0  -5   2 1885.86  635.68
   0  -5   2 2236.32  630.12
   0  -5   2 1758.31  630.03
   0   5  -2 1951.86  635.83
   0   5  -2 1448.83  629.92
   0   5  -2 2706.48  630.31
   0  -5   3 1103.42  363.95
   0  -5   3 1411.81  360.65
   0  -5   3  928.97  360.51
   0   5  -3 1038.85  364.06
   0   5  -3 1071.06  360.46
   0   5  -3  976.82  360.59
   0  -5   4  103.77   31.35
   0  -5   4   74.61   31.10
   0  -5   4  107.78   30.37
   0  -5   4   84.98   30.39
   0   5  -4   79.01   31.20
   0   5  -4   86.61   30.24
   0   5  -4   98.80   30.62
   0  -5   5  156.47   49.66
   0  -5   5  136.71   49.70
   0  -5   5  157.75   48.68
   0  -5   5  176.54   48.86
   0   5  -5  104.96   49.43
   0   5  -5  144.83   48.70
   0   5  -5  162.77   48.88
   0  -5   6  186.46   47.93
   0  -5   6  122.82   47.50
   0  -5   6  150.26   46.57
   0  -5   6  174.65   46.79
   0   5  -6  115.65   47.58
   0   5  -6  115.73   46.50
   0   5  -6  131.99   46.69
   0  -5   7 2556.54  655.60
   0  -5   7 1807.10  655.45
   0  -5   7 2246.81  649.45
   0  -5   7 1873.47  649.47
   0   5  -7 1600.13  655.31
   0   5  -7 2274.06  655.68
   0   5  -7 1631.97  649.33
   0   5  -7 1991.93  649.56
   0  -5   8   44.01   13.97
   0  -5   8   19.17   11.40
   0  -5   8   42.60   11.02
   0  -5   8   27.39   12.15
   0   5  -8   16.30   10.98
   0   5  -8   43.07   13.90
   0   5  -8   36.36   11.34
   0  -5   9  271.86   78.18
   0  -5   9  156.40   77.42
   0  -5   9  323.75   76.74
   0  -5   9  229.76   76.62
   0   5  -9  158.63   77.39
   0   5  -9  263.71   78.20
   0   5  -9  187.37   76.40
   0   5  -9  374.76   77.18
   0  -5  10  489.05  105.75
   0  -5  10  188.58  104.70
   0  -5  10  498.42  103.99
   0  -5  10  255.66  103.58
   0   5 -10  213.04  104.64
   0   5 -10  282.21  103.50
   0   5 -10  363.81  103.83
   0  -5  11   94.63   30.48
   0  -5  11   70.22   28.40
   0   5 -11   83.18   30.97
   0  -5  12  125.75   34.85
   0  -5  12   74.89   33.44
   0   5 -12  107.65   35.60
   0   5 -12   85.79   33.99
   0  -5  13  660.83  207.20
   0   5 -13  569.70  206.92
   0  -5  14  225.44   47.73
   0   5 -14    2.18   45.17
   0  -4   1    2.28    3.66
   0  -4   1    0.29    3.46
   0  -4   1    3.59    3.80
   0   4  -1    2.60    4.93
   0   4  -1   11.87    3.30
   0   4  -1    2.18    5.64
   0  -4   2 2628.41  921.73
   0  -4   2 3182.18  913.75
   0  -4   2 2678.81  913.73
   0   4  -2 3019.98  921.91
   0   4  -2 2367.29  913.65
   0   4  -2 2974.21  913.80
   0  -4   3   19.66    9.73
   0  -4   3   16.83    9.47
   0  -4   3   32.07    8.80
   0  -4   3   31.59    8.98
   0   4  -3   19.39    9.75
   0   4  -3   23.36    8.73
   0   4  -3   23.39    9.10
   0  -4   4 2935.16  868.44
   0  -4   4 2598.22  868.35
   0  -4   4 2544.46  860.60
   0  -4   4 2944.47  860.71
   0   4  -4 2044.96  868.22
   0   4  -4 2743.31  860.64
   0   4  -4 2637.40  860.68
   0   4  -5   52.90    1.50
   0  -4   5   58.13   19.24
   0  -4   5   56.89   18.98
   0  -4   5   53.29   17.90
   0  -4   5   51.62   18.14
   0   4  -5   46.89   19.35
   0   4  -5   47.19   18.04
   0   4  -5   57.21   18.12
   0  -4   6  810.99  231.57
   0  -4   6  704.36  231.57
   0  -4   6  698.39  228.97
   0   4  -6  574.91  231.39
   0   4  -6  679.09  231.49
   0   4  -6  666.12  229.01
   0   4  -6  737.52  229.10
   0  -4   7  165.57   46.43
   0  -4   7  101.22   45.88
   0  -4   7  151.28   45.18
   0  -4   7  179.34   45.49
   0   4  -7   95.31   45.75
   0   4  -7  155.45   45.28
   0   4  -7  146.17   45.27
   0  -4   8  131.56   44.19
   0  -4   8   93.41   43.75
   0  -4   8  150.04   43.05
   0  -4   8  146.55   43.18
   0   4  -8  102.70   43.69
   0   4  -8  129.44   44.44
   0   4  -8  175.84   43.35
   0  -4   9  151.58   38.14
   0  -4   9   79.90   37.57
   0  -4   9  131.45   37.03
   0  -4   9  101.09   37.09
   0   4  -9   63.70   37.31
   0   4  -9  134.48   38.37
   0   4  -9   93.58   36.78
   0   4  -9  170.60   37.32
   0  -4  10  175.75   40.48
   0  -4  10   90.56   39.76
   0  -4  10   79.67   38.79
   0   4 -10   81.19   39.54
   0   4 -10  178.68   40.75
   0   4 -10  116.41   38.94
   0   4 -10  129.67   39.08
   0  -4  11   22.66   11.90
   0  -4  11   19.25   10.26
   0   4 -11   26.69   12.54
   0   4 -11   25.13   12.17
   0  -4  12   24.88   13.31
   0   4 -12   19.80   15.69
   0  -4  13  100.52   38.17
   0   4 -13   94.86   36.98
   0  -4  14  829.04  141.35
   0   4 -14   -6.37  138.90
   0  -3   1 1133.03  393.24
   0  -3   1 1220.12  389.66
   0  -3   1 1071.89  389.66
   0   3  -1 1287.41  393.36
   0   3  -1  964.84  389.61
   0   3  -1 1540.68  389.77
   0  -3   2  658.06  227.46
   0  -3   2  641.19  225.13
   0  -3   2  716.75  225.18
   0   3  -2  677.59  227.55
   0   3  -2  683.55  225.15
   0   3  -2  737.98  225.24
   0  -3   4   27.14   10.59
   0  -3   4   22.78    9.93
   0  -3   4   24.50    8.97
   0  -3   4   30.49    9.20
   0   3  -4   21.73   10.28
   0   3  -4   22.92   10.43
   0   3  -4   27.60    9.08
   0   3  -4   26.67    9.17
   0  -3   5 1817.19  569.18
   0  -3   5 1733.87  569.26
   0  -3   5 1935.86  563.92
   0  -3   5 1412.79  563.91
   0   3  -5 1540.32  569.13
   0   3  -5 1734.56  569.23
   0  -3   6 2101.00  662.18
   0  -3   6 1728.99  661.99
   0  -3   6 2758.53  656.21
   0  -3   6 1923.96  656.17
   0   3  -6 1511.64  661.93
   0   3  -6 2175.97  662.23
   0   3  -6 2242.09  656.18
   0   3  -6 1725.09  656.11
   0  -3   7   26.40    9.16
   0  -3   7   20.73    9.07
   0   3  -7   19.80    8.62
   0   3  -7   30.24    9.27
   0   3  -7   20.16    8.28
   0   3  -7   20.84    8.58
   0  -3   8   32.37   10.23
   0  -3   8   21.69   10.18
   0  -3   8   28.03   10.27
   0   3  -8   21.63   10.22
   0   3  -8   28.05   10.47
   0   3  -8   26.29    9.44
   0  -3   9  325.53   81.81
   0  -3   9  193.72   81.53
   0  -3   9  257.58   80.48
   0   3  -9  193.45   81.43
   0   3  -9  315.18   81.90
   0   3  -9  223.43   80.34
   0   3  -9  241.26   80.40
   0  -3  10   13.35    7.39
   0  -3  10    8.05    6.92
   0   3 -10    7.30    6.19
   0   3 -10   11.24    6.69
   0  -3  11  376.02  128.57
   0   3 -11  391.14  128.67
   0  -3  12   22.10   11.91
   0   3 -12   22.91   12.81
   0  -3  13  664.39  116.08
   0   3 -13   -1.80  114.78
   0  -3  14  371.95   68.78
   0   3 -14    3.14   67.25
   0  -2   1   55.88   20.79
   0  -2   1   61.83   20.26
   0  -2   1   61.67   20.32
   0   2  -1   53.73   20.86
   0   2  -1   74.24   20.31
   0   2  -1   58.74   20.43
   0  -2   2 2600.49  710.67
   0  -2   2 2011.54  710.56
   0   2  -2 2037.66  710.57
   0   2  -2 1990.05  704.22
   0  -2   3 1037.73  331.60
   0  -2   3 1198.07  331.67
   0  -2   3  827.99  328.33
   0  -2   3 1049.76  328.39
   0   2  -3  952.50  331.60
   0   2  -3 1029.59  331.66
   0   2  -3  930.21  328.36
   0   2  -3 1027.32  328.39
   0  -2   4 3547.41  931.99
   0  -2   4 2534.71  931.83
   0  -2   4 2245.39  923.63
   0  -2   4 3139.00  923.71
   0   2  -4 2383.99  931.74
   0   2  -4 3483.83  932.06
   0   2  -4 2721.78  923.67
   0   2  -4 3118.52  923.71
   0  -2   5  242.34   62.17
   0  -2   5  175.27   61.88
   0  -2   5  176.81   60.89
   0   2  -5  192.43   61.81
   0   2  -5  217.76   62.17
   0   2  -5  160.13   60.91
   0   2  -5  148.24   60.89
   0  -2   6   42.24   14.20
   0  -2   6   38.67   14.03
   0  -2   6   40.57   13.32
   0  -2   6   40.94   13.49
   0   2  -6   38.87   13.87
   0   2  -6   38.61   14.17
   0   2  -6   36.12   13.40
   0  -2   7   65.52   21.56
   0  -2   7   62.98   21.64
   0  -2   7   56.56   20.84
   0   2  -7   63.34   21.51
   0   2  -7   69.66   21.57
   0   2  -7   50.21   20.67
   0   2  -7   64.98   20.76
   0  -2   8  271.68   83.10
   0  -2   8  225.94   83.14
   0  -2   8  273.81   81.84
   0  -2   8  210.30   81.85
   0   2  -8  245.06   83.04
   0   2  -8  259.29   83.17
   0   2  -8  233.35   81.82
   0  -2   9    9.84    5.96
   0  -2   9    8.29    6.82
   0   2  -9    8.44    5.99
   0   2  -9    7.90    5.47
   0  -2  10  221.99   57.06
   0  -2  10  127.14   56.85
   0   2 -10  103.66   56.55
   0   2 -10  228.20   56.92
   0  -2  11   58.67   21.54
   0   2 -11   57.31   21.50
   0  -2  12 1092.15  365.53
   0   2 -12 1098.10  365.57
   0  -2  13    7.59    9.95
   0   2 -13   -3.03   10.29
   0  -2  14  391.73   69.56
   0   2 -14    1.07   68.50
   0  -1   2   54.35   14.53
   0  -1   2   48.46   14.52
   0  -1   2   39.19   13.91
   0   1  -2   46.61   14.39
   0   1  -2   44.62   14.52
   0   1  -2   29.84   13.71
   0   1  -2   33.12   13.75
   0  -1   3  113.03   31.50
   0  -1   3   83.71   31.35
   0  -1   3   87.12   30.67
   0   1  -3   93.30   31.30
   0   1  -3  121.39   31.70
   0   1  -3   85.68   30.70
   0   1  -3   80.08   30.67
   0  -1   4   83.02   28.03
   0  -1   4   85.21   28.13
   0  -1   4   78.04   27.37
   0   1  -4   86.11   28.02
   0   1  -4   83.07   28.13
   0   1  -4   86.70   27.41
   0   1  -4   78.22   27.38
   0  -1   5   53.13   19.25
   0  -1   5   55.26   19.40
   0  -1   5   59.48   18.62
   0  -1   5   66.80   18.72
   0   1  -5   53.53   19.28
   0   1  -5   55.83   19.33
   0   1  -5   60.49   18.68
   0   1  -5   50.52   18.60
   0  -1   6  549.14  193.18
   0  -1   6  613.57  193.33
   0  -1   6  565.10  191.12
   0   1  -6  618.18  193.20
   0   1  -6  575.26  193.28
   0   1  -6  552.41  191.15
   0  -1   7  756.93  241.39
   0  -1   7  697.98  241.49
   0   1  -7  686.89  241.35
   0   1  -7  755.62  241.46
   0  -1   8   62.71   20.73
   0  -1   8   51.95   20.87
   0   1  -8   51.28   20.64
   0   1  -8   71.75   20.91
   0  -1   9   43.85   12.86
   0  -1   9   15.38   12.90
   0   1  -9   12.74   12.17
   0   1  -9   57.82   12.91
   0  -1  10  540.18  175.54
   0   1 -10  506.80  175.66
   0  -1  11 1252.53  417.31
   0   1 -11 1253.53  417.41
   0  -1  12  129.05   46.98
   0   1 -12  142.86   47.14
   0  -1  13  281.58   49.49
   0   1 -13   -4.99   46.81
   0   0   2  823.88  249.48
   0   0   2  738.97  249.54
   0   0  -2  728.35  249.45
   0   0  -2  779.20  249.56
   0   0  -2  678.46  247.03
   0   0   3 1454.70  474.94
   0   0   3 1472.91  475.02
   0   0  -3 1365.08  474.93
   0   0  -3 1430.27  475.02
   0   0   4 1231.80  379.30
   0   0   4 1275.88  379.40
   0   0  -4  937.30  379.25
   0   0  -4 1164.25  379.39
   0   0   5  393.86  131.64
   0   0   5  363.51  131.73
   0   0  -5  399.34  131.63
   0   0  -5  419.32  131.75
   0   0   6  131.64   44.10
   0   0   6  126.71   44.27
   0   0  -6  125.50   44.16
   0   0  -6  139.59   44.21
   0   0   7  119.73   39.64
   0   0   7  116.92   39.86
   0   0  -7  113.53   39.71
   0   0  -7  117.80   39.69
   0   0   8  143.66   44.31
   0   0   8  160.54   44.85
   0   0  -8  114.77   44.42
   0   0  -8  108.46   44.34
   0   0   9  428.65  137.58
   0   0   9  360.09  138.14
   0   0  -9  417.54  138.07
   0   0  -9  417.46  137.66
   0   0  10  768.84  262.52
   0   0 -10  807.56  262.63
   0   0  11  115.47   41.61
   0   0 -11  121.59   41.56
   0   0  12   98.41   20.10
   0   0 -12   -1.09   19.45
   0   0  13    1.48    9.59
   0   0 -13   -2.50   10.29
   0   1   1  726.49  256.20
   0   1   1  660.14  256.22
   0   1   1  816.15  253.80
   0   1   1  870.01  253.78
   0  -1  -1  681.58  256.24
   0  -1  -1  847.76  253.79
   0  -1  -1  830.81  253.79
   0   1   2   99.32   34.01
   0   1   2   89.04   34.05
   0   1   2  124.20   33.39
   0  -1  -2   93.47   33.99
   0  -1  -2   93.55   34.08
   0  -1  -2   94.48   33.37
   0  -1  -2  126.69   33.41
   0   1   3  409.74  127.21
   0   1   3  402.67  127.28
   0   1   3  363.75  125.76
   0   1   3  340.14  125.74
   0  -1  -3  399.50  127.19
   0  -1  -3  433.24  127.31
   0  -1  -3  320.31  125.74
   0   1   4  126.63   43.56
   0   1   4  135.19   43.74
   0  -1  -4  132.43   43.61
   0  -1  -4  125.43   43.65
   0   1   5   12.33    5.29
   0   1   5   15.93    6.03
   0  -1  -5   11.88    5.42
   0  -1  -5   12.00    5.64
   0   1   6   35.11   15.28
   0   1   6   50.49   15.74
   0  -1  -6   50.29   15.51
   0  -1  -6   41.19   15.47
   0   1   7 1771.82  607.50
   0   1   7 1847.18  607.75
   0  -1  -7 1924.61  607.69
   0  -1  -7 1784.15  607.60
   0   1   8    2.15    3.97
   0   1   8    4.30    8.72
   0  -1  -8   -0.18    6.52
   0  -1  -8    2.45    4.48
   0   1   9  550.50  188.78
   0  -1  -9  582.23  188.88
   0   1  10  128.84   45.29
   0  -1 -10  136.39   45.34
   0   1  11 1849.08  608.63
   0  -1 -11 1803.88  608.67
   0   1  12  102.27   23.59
   0  -1 -12    0.77   23.01
   0   2   0  170.00   58.93
   0   2   0  167.26   58.08
   0   2   0  188.41   58.17
   0  -2   0  172.46   58.92
   0  -2   0  191.01   58.15
   0  -2   0  174.03   58.15
   0   2   1 1281.25  459.92
   0   2   1 1414.57  455.74
   0   2   1 1449.41  455.78
   0  -2  -1 1166.40  459.87
   0  -2  -1 1571.81  455.77
   0  -2  -1 1542.36  455.77
   0   2   2  318.95  116.49
   0   2   2  307.36  116.54
   0   2   2  398.30  115.26
   0   2   2  361.55  115.19
   0  -2  -2  315.34  116.59
   0  -2  -2  365.53  115.23
   0  -2  -2  419.41  115.24
   0   2   3   40.07   13.22
   0   2   3   37.50   13.27
   0   2   3   33.02   12.90
   0   2   3   38.20   12.65
   0  -2  -3   34.63   13.35
   0  -2  -3   43.01   12.74
   0   2   4 1849.09  582.58
   0   2   4 1743.44  582.67
   0   2   4 1642.46  577.35
   0   2   4 1717.23  577.28
   0  -2  -4 1822.41  582.68
   0  -2  -4 1646.94  577.31
   0   2   5   53.56   19.12
   0   2   5   54.33   19.29
   0  -2  -5   58.88   19.28
   0   2   6  797.17  371.72
   0   2   6 1246.45  372.03
   0  -2  -6 1387.33  371.97
   0   2   7  474.61  155.76
   0   2   7  471.53  156.23
   0  -2  -7  452.72  155.86
   0   2   8  732.42  243.79
   0  -2  -8  728.99  243.92
   0   2   9  610.53  205.32
   0  -2  -9  619.99  205.46
   0   2  10 1311.42  549.13
   0  -2 -10 2016.86  549.44
   0   2  11    3.75    8.88
   0  -2 -11    2.09    8.28
   0   2  12  575.52  104.65
   0  -2 -12    1.98  102.84
   0  -3   0   29.88    0.65
   0   3   0   38.21   12.54
   0   3   0   34.91   11.91
   0   3   0   34.07   12.45
   0  -3   0   40.81   12.28
   0  -3   0   34.55   12.10
   0   3   1 1181.10  379.59
   0   3   1 1124.36  376.01
   0   3   1 1113.23  376.09
   0  -3  -1 1111.88  379.52
   0  -3  -1 1212.36  376.06
   0  -3  -1 1102.92  376.04
   0   3   2   19.81    0.61
   0   3   2   22.25    8.05
   0   3   2   22.85    8.32
   0  -3  -2   19.64    7.84
   0  -3  -2   21.69    7.52
   0   3   3  383.46  124.98
   0   3   3  361.98  125.08
   0   3   3  359.21  123.68
   0   3   3  359.38  123.52
   0  -3  -3  381.33  125.04
   0  -3  -3  392.81  123.59
   0  -3  -3  378.53  123.56
   0   3   4   32.23   11.62
   0   3   4   37.51   11.95
   0   3   4   28.80   11.64
   0   3   4   27.68   11.02
   0  -3  -4   37.79   11.85
   0  -3  -4   29.58   11.29
   0  -3  -4   33.75   11.34
   0   3   5    3.91    3.30
   0   3   5    4.79    4.26
   0   3   5    6.83    5.37
   0  -3  -5    4.20    3.71
   0  -3  -5    3.52    3.52
   0  -3  -5    1.77    2.57
   0   3   6  357.38  120.26
   0   3   6  403.39  120.76
   0  -3  -6  336.31  120.33
   0   3   7  405.65  129.31
   0   3   7  342.11  129.89
   0  -3  -7  389.21  129.41
   0   3   8  149.10   50.15
   0  -3  -8  145.63   50.34
   0   3   9 1460.77  451.35
   0  -3  -9 1227.50  451.43
   0   3  10    8.28    9.39
   0  -3 -10    0.49    8.94
   0   3  11   26.89   12.28
   0  -3 -11    4.31   11.00
   0   4   0   45.13   17.20
   0   4   0   44.91   16.55
   0   4   0   49.70   17.19
   0  -4   0   69.43   16.76
   0  -4   0   36.55   16.84
   0   4   1 1331.50  419.44
   0   4   1 1276.25  415.62
   0   4   1 1068.68  415.41
   0  -4  -1 1234.60  419.35
   0  -4  -1 1482.37  415.56
   0  -4  -1 1310.96  415.52
   0   4   2   13.84    5.61
   0   4   2    8.83    5.81
   0   4   2   14.48    7.84
   0   4   2   11.18    5.10
   0  -4  -2   13.89    5.66
   0  -4  -2   14.89    5.35
   0  -4  -2   12.11    5.34
   0   4   3  201.51   71.02
   0   4   3  212.12   71.28
   0   4   3  211.69   70.39
   0  -4  -3  223.77   71.19
   0  -4  -3  209.95   70.17
   0  -4  -3  213.21   70.13
   0   4   4 1191.64  475.19
   0   4   4 1609.54  475.53
   0   4   4 1491.27  471.06
   0   4   4 1397.72  470.80
   0  -4  -4 1515.34  475.33
   0  -4  -4 1492.83  470.92
   0  -4  -4 1433.44  470.85
   0   4   5  442.77  142.23
   0   4   5  483.37  142.73
   0   4   5  433.87  140.85
   0   4   5  403.12  140.52
   0  -4  -5  436.37  142.31
   0  -4  -5  408.04  140.62
   0  -4  -5  392.84  140.54
   0   4   6  232.50   75.61
   0   4   6  236.34   76.81
   0  -4  -6  210.17   75.73
   0   4   7    6.16    5.38
   0  -4  -7    4.78    5.77
   0   4   8 2935.73  980.57
   0  -4  -8 2961.73  980.78
   0   4   9   88.90   26.51
   0  -4  -9   46.39   26.31
   0  -4 -10    1.05   10.33
   0   5   0  131.55   44.10
   0   5   0  136.67   43.15
   0   5   0  148.11   43.84
   0  -5   0  121.77   43.94
   0  -5   0  141.08   43.38
   0  -5   0  104.58   43.12
   0   5   1  736.44  225.59
   0   5   1  670.51  223.44
   0   5   1  566.28  223.09
   0  -5  -1  676.82  225.46
   0  -5  -1  809.20  223.33
   0   5   2  272.44   80.06
   0   5   2  246.86   80.26
   0   5   2  211.81   79.26
   0   5   2  225.82   78.87
   0  -5  -2  242.81   80.10
   0  -5  -2  258.41   79.10
   0  -5  -2  210.60   78.95
   0   5   3 1885.92  513.79
   0   5   3 1941.48  514.10
   0   5   3 1480.16  509.24
   0   5   3 1187.09  508.91
   0  -5  -3 1733.45  513.86
   0  -5  -3 1582.66  509.13
   0  -5  -3 1284.65  508.99
   0   5   4   26.69    1.04
   0   5   4   29.27   12.97
   0   5   4   71.38   15.34
   0   5   4   17.28   10.70
   0  -5  -4   27.28   11.29
   0  -5  -4   24.75   11.43
   0   5   5  664.27  226.16
   0   5   5  716.02  224.38
   0   5   5  696.05  223.90
   0  -5  -5  725.44  226.33
   0  -5  -5  660.61  223.99
   0  -5  -5  622.57  223.93
   0   5   6  146.72   52.36
   0  -5  -6  163.61   52.70
   0   5   7 2900.83 1148.79
   0  -5  -7 4092.75 1149.09
   0   5   8   61.28   23.17
   0  -5  -8   58.24   23.57
   0   5   9  386.54   73.03
   0  -5  -9    5.64   71.69
   0   6   0   51.31   17.76
   0   6   0   50.55   17.26
   0   6   0   33.80   16.11
   0  -6   0   53.33   17.47
   0  -6   0   62.13   16.83
   0  -6   0   48.54   16.41
   0   6   1   86.14    6.61
   0   6   1   88.34   29.02
   0   6   1   90.70   29.33
   0   6   1   72.18   28.26
   0  -6  -1   91.95   29.22
   0  -6  -1   98.96   28.85
   0  -6  -1   73.53   28.60
   0   6   2  253.50   61.38
   0   6   2  162.76   61.51
   0   6   2  182.27   60.79
   0   6   2  135.29   60.05
   0  -6  -2  201.59   61.42
   0  -6  -2  186.45   60.37
   0  -6  -2  171.95   60.38
   0   6   3   14.79    6.60
   0   6   3   10.07    8.62
   0   6   3   14.81   14.31
   0   6   3   10.32    7.19
   0  -6  -3   18.02    8.55
   0  -6  -3   12.15    7.02
   0   6   4  731.52  217.37
   0   6   4  825.95  216.05
   0   6   4  539.19  215.02
   0  -6  -4  702.36  217.46
   0  -6  -4  783.16  215.41
   0  -6  -4  502.06  215.09
   0   6   5  645.13  175.85
   0   6   5  492.08  174.65
   0   6   5  427.15  173.98
   0  -6  -5  683.41  176.11
   0  -6  -5  476.20  174.19
   0  -6  -5  355.26  173.93
   0   6   6 1379.75  459.86
   0  -6  -6 1381.59  460.03
   0   6   7  114.04   40.12
   0  -6  -7  115.81   40.02
   0   6   8   30.38   13.19
   0  -6  -8   -1.73   13.28
   0   7   0   65.58   24.38
   0   7   0   96.34   23.46
   0   7   0   49.01   22.26
   0  -7   0   80.29   23.42
   0  -7   0   80.37   22.68
   0  -7   0   44.21   22.16
   0   7   1   81.05   20.79
   0   7   1   42.80   21.68
   0   7   1   37.49   19.59
   0  -7  -1   65.62   20.76
   0  -7  -1   83.38   20.63
   0  -7  -1   48.57   19.96
   0   7   2  672.58  167.31
   0   7   2  704.46  166.69
   0   7   2  330.87  164.99
   0  -7  -2  655.60  167.46
   0  -7  -2  590.39  165.59
   0  -7  -2  372.48  165.19
   0   7   3  711.84  197.75
   0   7   3  690.86  196.71
   0   7   3  341.82  195.29
   0  -7  -3  761.18  197.91
   0  -7  -3  636.51  195.72
   0   7   4  319.00  103.38
   0   7   4  285.72  104.11
   0  -7  -4  330.38  103.68
   0  -7  -4  268.92  102.54
   0   7   5 2061.24  657.34
   0   7   5 1482.05  652.32
   0  -7  -5 2542.15  657.68
   0  -7  -5 1152.37  651.65
   0   7   6   14.99   12.02
   0  -7  -6   29.14   13.03
   0   7   7    0.54   10.32
   0  -7  -7    0.90   10.65
   0   8   0  154.87   41.71
   0   8   0   66.67   40.15
   0  -8   0  190.94   42.02
   0  -8   0  221.46   41.49
   0  -8   0   63.73   40.28
   0   8   1   69.21   23.91
   0   8   1   40.55   22.01
   0  -8  -1   74.27   23.97
   0  -8  -1   43.97   21.64
   0   8   2 1711.27  565.94
   0   8   2 1963.20  561.67
   0  -8  -2 1696.72  566.09
   0  -8  -2 1535.43  560.84
   0  -8  -3   69.88    7.92
   0   8   3   76.27   27.99
   0   8   3   85.80   34.44
   0   8   4 1872.56  554.17
   0   8   4 1182.69  550.31
   0  -8  -4 1840.76  554.35
   0  -8  -4 1301.78  549.69
   0   8   5  181.29   59.27
   0  -8  -5  157.92   59.03
   0   8   6  547.99  102.92
   0  -8  -6    2.12  101.72
   0   9   0  255.51   82.00
   0   9   0  227.88   81.39
   0  -9   0  243.77   82.07
   0  -9   0  226.37   80.67
   0   9   1 1863.93  611.41
   0   9   1 1844.88  606.55
   0  -9  -1 1945.24  611.57
   0  -9  -1 1701.80  605.71
   0   9   2  235.02   76.63
   0   9   2  198.34   81.28
   0  -9  -2  222.16   76.92
   0   9   3  183.43   48.35
   0   9   3  156.97   65.25
   0  -9  -3  165.26   48.88
   0  -9  -3   11.02   50.46
   0   9   4  172.37   57.87
   0  -9  -4  156.32   58.19
   0   9   5  391.52   73.76
   0  -9  -5   -5.46   71.58
   0  10   0 1252.32  401.59
   0  10   0 1056.23  398.47
   0 -10   0 1390.08  401.75
   0 -10   0 1080.62  397.18
   0  10   1   89.66   26.32
   0  10   1   99.38   40.02
   0 -10  -1   78.44   27.20
   0 -10  -1   -1.87   26.76
   0  10   2  440.96  110.98
   0  10   2  400.20  122.80
   0 -10  -2  410.90  111.26
   0 -10  -2    6.61  109.22
   0  10   3    0.14   15.30
   0 -10  -3    7.77   14.56
   0  11   0  297.69   80.52
   0  11   0  440.22   94.95
   0 -11   0  307.29   80.98
   0 -11   0    2.86   77.63
   0  11   1  614.71  172.83
   0  11   1  762.32  183.76
   0 -11  -1  709.30  173.20
   0 -11  -1   -4.41  169.82
   0  11   2    4.30   17.83
   0 -11  -2    3.70   13.44
   0  12   0   58.68   10.34
   0 -12   0   73.33   33.80
   1 -13   2  152.74   71.30
  -1  13  -2  205.86   72.04
   1 -13   3  185.88   68.81
   1 -13   3  145.39   64.85
  -1  13  -3  241.76   76.03
   1 -13   4  455.77  171.64
   1 -13   4  542.48  166.26
  -1  13  -4  436.73  169.70
   1 -13   5   53.29   37.12
   1 -13   5   59.98   25.28
  -1  13  -5   38.75   37.54
   1 -13   6  374.10  138.73
   1 -13   6  422.13  133.89
  -1  13  -6  371.19  137.55
   1 -13   7  111.79   49.77
   1 -13   7  109.71   42.60
  -1  13  -7  132.90   51.72
   1 -13   8  298.38  113.21
   1 -13   8  335.84  108.45
  -1  13  -8  308.71  112.76
   1 -13   9  409.29   42.47
   1 -13   9  333.51  116.93
  -1  13  -9  305.03  120.60
   1 -13  10  172.02   61.49
   1 -13  10  149.92   53.83
  -1  13 -10  130.25   59.22
   1 -13  11   28.64   34.20
   1 -13  11   46.54   28.68
   1 -12   0  215.68   58.95
   1 -12   0    2.36   53.25
  -1  12   0  185.08   58.29
  -1  12   0  336.92   70.78
   1 -12   1  703.72  165.46
   1 -12   1    3.02  159.35
  -1  12  -1  734.81  165.68
  -1  12  -1  813.78  167.17
   1 -12   2  430.32   61.64
   1 -12   2  511.68  165.57
  -1  12  -2  545.22  169.24
   1 -12   3 1136.61  367.81
   1 -12   3 1062.04  362.85
  -1  12  -3 1117.31  364.18
   1 -12   4  114.67   47.09
   1 -12   4  115.69   42.06
  -1  12  -4  123.46   45.46
   1 -12   5    9.77   21.64
   1 -12   5   10.71   16.85
  -1  12  -5   21.35   20.72
   1 -12   6  254.45   31.08
   1 -12   6  287.01   92.90
  -1  12  -6  275.81   94.81
   1 -12   7  147.01   16.41
   1 -12   7  151.12   54.83
  -1  12  -7  183.44   59.81
   1 -12   8  146.90   54.03
   1 -12   8  141.35   49.43
  -1  12  -8  131.44   55.07
   1 -12   9  481.67  168.80
   1 -12   9  522.53  165.23
  -1  12  -9  452.48  167.46
   1 -12  10   11.78   24.09
   1 -12  10   19.63   17.04
  -1  12 -10   12.20   26.96
   1 -12  11   78.34   35.73
   1 -12  11   92.40   31.22
  -1  12 -11    5.86   32.57
   1 -12  12  213.36   62.90
   1 -12  12  179.78   56.62
  -1  12 -12   27.19   60.79
   1 -11   0  693.16  159.72
   1 -11   0    3.71  155.12
  -1  11   0  730.01  159.92
  -1  11   0  603.25  159.11
   1 -11   1   28.76    8.32
   1 -11   1   41.70   19.60
  -1  11  -1   40.10   24.11
   1 -11   2 2589.93  731.23
   1 -11   2 2266.13  723.66
  -1  11  -2 1590.14  723.87
   1 -11   3   90.86   10.93
   1 -11   3   85.80   32.42
  -1  11  -3   94.17   35.91
   1 -11   4 1606.88  522.99
   1 -11   4 1526.48  517.35
  -1  11  -4 1590.27  517.99
   1 -11   5   50.18    6.66
   1 -11   5   80.34   25.65
  -1  11  -5   63.59   29.09
   1 -11   6   20.69   17.87
   1 -11   6   14.11   12.64
  -1  11  -6   15.65   20.55
   1 -11   7  218.13   75.05
   1 -11   7  224.31   72.43
  -1  11  -7  191.42   73.73
   1 -11   8   -3.09   17.00
   1 -11   8   -0.04   11.83
  -1  11  -8   -1.79   19.54
   1 -11   9  268.84   94.04
   1 -11   9  223.32   91.17
  -1  11  -9  379.03   94.94
   1 -11  10    7.33   18.44
   1 -11  10  -10.46   17.11
  -1  11 -10   -4.52   22.42
   1 -11  11   -4.48   19.87
   1 -11  11   -3.01   16.90
  -1  11 -11    8.57   21.01
   1 -11  12    3.91   22.55
   1 -11  12    6.01   19.53
  -1  11 -12    7.17   29.71
   1 -11  13  451.60  155.90
   1 -10   0   52.59   20.38
   1 -10   0   16.28   16.04
  -1  10   0   41.00   20.48
   1 -10   1  171.26   61.18
   1 -10   1  168.62   58.68
  -1  10  -1  182.49   61.10
   1 -10   2   38.38   20.26
   1 -10   2   33.14   15.45
  -1  10  -2   37.44   20.88
   1 -10   3 2291.09  314.39
   1 -10   3 2293.29  755.64
  -1  10  -3 2283.25  756.09
   1 -10   4  268.07   94.88
   1 -10   4  284.64   92.87
  -1  10  -4  279.52   94.14
   1 -10   5  142.70   58.07
   1 -10   5  159.52   56.00
  -1  10  -5  204.21   58.13
   1 -10   6 1242.44  404.80
   1 -10   6 1163.30  400.49
  -1  10  -6 1257.02  401.10
   1 -10   7   11.74    6.27
   1 -10   7   22.47   12.11
  -1  10  -7   24.89   15.68
   1 -10   8   74.20   33.14
   1 -10   8   99.87   30.97
  -1  10  -8   77.45   33.03
   1 -10   9 1777.18  628.85
   1 -10   9 1944.67  622.70
  -1  10  -9 1922.58  623.51
   1 -10  10  121.25   47.94
   1 -10  10  122.12   45.65
  -1  10 -10  162.84   49.04
   1 -10  11  202.27   68.71
   1 -10  11  226.07   67.32
  -1  10 -11  131.01   67.85
   1 -10  12   25.39   19.74
   1 -10  12   18.12   18.53
   1 -10  13 3033.43  969.26
   1 -10  13 2774.73  960.84
   1 -10  14   20.65   24.33
   1  -9   0  957.00  248.98
   1  -9   0  633.77  245.87
  -1   9   0  633.83  246.28
   1  -9   1    0.53   10.96
   1  -9   1    0.67    7.43
  -1   9  -1    0.87   12.30
   1  -9   2  386.64  144.35
   1  -9   2  444.57  142.56
  -1   9  -2  463.24  143.00
   1  -9   3  202.04   47.51
   1  -9   3  208.66   46.48
  -1   9  -3  185.63   47.11
  -1   9  -3   48.24   45.36
   1  -9   4   26.96    9.94
   1  -9   4    9.41    9.78
   1  -9   4   28.91    8.76
   1  -9   4    5.83    6.60
  -1   9  -4    9.27   10.15
  -1   9  -4   25.52   10.92
  -1   9  -4    6.18    6.06
   1  -9   5   16.62   11.42
   1  -9   5   39.95    9.54
   1  -9   5    8.53    7.54
  -1   9  -5   16.85   11.01
  -1   9  -5   32.17   11.35
  -1   9  -5    8.25    6.96
   1  -9   6  283.07  112.16
   1  -9   6  381.50  110.59
  -1   9  -6  316.79  110.86
   1  -9   7   79.59   27.31
   1  -9   7   66.26   24.93
  -1   9  -7   67.71   25.26
   1  -9   8    6.68   12.22
   1  -9   8    7.23    8.03
  -1   9  -8    4.94    9.55
   1  -9   9   16.83   15.02
   1  -9   9   34.07   13.17
  -1   9  -9   16.94   19.07
   1  -9  10 1382.71  456.77
   1  -9  11    8.90   13.09
   1  -9  11   15.77   15.11
  -1   9 -11   13.35   19.73
   1  -9  12 2444.59  678.64
   1  -9  12 2882.21  673.13
  -1   9 -12   -2.51  671.34
   1  -9  13  457.17  118.43
   1  -9  13  471.71  120.46
  -1   9 -13   -1.86  116.55
   1  -9  14  325.16  111.32
   1  -8   0   23.31   10.22
   1  -8   0   19.02    8.60
   1  -8   0    6.69    7.81
  -1   8   0    8.87    9.53
  -1   8   0   30.16   13.54
  -1   8   0   12.50    6.94
   1  -8   1 2484.07  666.08
   1  -8   1 3235.96  660.27
   1  -8   1 1447.73  659.64
  -1   8  -1 1803.57  666.04
  -1   8  -1 2882.86  660.53
  -1   8  -1 1400.94  659.56
   1  -8   2  394.12  112.62
   1  -8   2  552.84  111.42
   1  -8   2  240.24  110.79
  -1   8  -2  269.27  112.69
  -1   8  -2  493.48  112.19
  -1   8  -2  222.65  110.70
   1  -8   3  187.26   50.07
   1  -8   3  131.24   50.30
   1  -8   3  227.35   49.31
   1  -8   3   79.95   48.55
  -1   8  -3  125.47   50.24
  -1   8  -3  287.51   50.69
  -1   8  -3   90.94   48.47
   1  -8   4   20.22    8.96
   1  -8   4   10.82    7.73
   1  -8   4   28.82    8.00
   1  -8   4    8.31    5.88
  -1   8  -4    8.18    7.77
  -1   8  -4   19.12   10.82
  -1   8  -4    4.74    5.36
   1  -8   5  243.91   62.80
   1  -8   5  143.59   62.86
   1  -8   5  329.30   61.96
   1  -8   5  136.76   61.15
  -1   8  -5  121.09   62.45
  -1   8  -5  132.29   61.11
  -1   8  -5  292.51   62.36
   1  -8   6  414.10   86.43
   1  -8   6  227.02   85.95
   1  -8   6  375.07   84.94
   1  -8   6  163.76   84.37
  -1   8  -6  164.76   85.68
  -1   8  -6  182.27   84.39
  -1   8  -6  443.28   85.61
   1  -8   7  720.70  161.79
   1  -8   7  302.82  161.25
   1  -8   7  934.10  159.99
   1  -8   7  251.65  159.07
  -1   8  -7  340.52  161.37
  -1   8  -7  280.77  159.08
  -1   8  -7  913.21  160.50
   1  -8   8   30.06   11.65
   1  -8   8   11.36    9.56
   1  -8   8   44.37    9.94
   1  -8   8   14.00    9.29
  -1   8  -8   11.12    9.87
  -1   8  -8   18.85    9.59
  -1   8  -8   43.82   12.72
   1  -8   9  368.52  147.98
   1  -8   9  469.71  146.18
  -1   8  -9  506.24  147.03
   1  -8  10 1272.05  454.07
   1  -8  10 1451.33  449.71
  -1   8 -10 1333.23  450.13
   1  -8  11 1729.46  669.82
   1  -8  11 2492.47  664.08
  -1   8 -11 1695.58  664.09
   1  -8  12   93.32   29.41
   1  -8  12   50.65   27.10
  -1   8 -12   78.11   42.44
   1  -8  13   11.40   14.70
   1  -8  13    3.43   19.73
  -1   8 -13    1.44   22.85
   1  -8  14    3.00   16.17
   1  -7   0 3505.68  992.02
   1  -7   0 4129.78  983.41
   1  -7   0 2498.87  983.12
  -1   7   0 2898.70  992.01
  -1   7   0 3552.91  983.56
  -1   7   0 2231.06  983.02
   1  -7   1   13.92    1.18
   1  -7   1   19.21    6.54
   1  -7   1   12.63    6.37
  -1   7  -1   10.90    6.94
  -1   7  -1   14.62    9.22
  -1   7  -1    5.98    5.54
  -1   7  -2    4.75    4.36
   1  -7   2    5.15    5.49
   1  -7   2    4.47    4.96
   1  -7   2    1.68    3.86
  -1   7  -2    4.23    8.56
  -1   7  -2    0.96    3.25
   1  -7   3  574.41  189.48
   1  -7   3  490.61  189.54
   1  -7   3  743.12  187.54
   1  -7   3  378.94  187.21
  -1   7  -3  462.18  189.50
  -1   7  -3  862.37  188.01
   1  -7   4  201.55   57.96
   1  -7   4  154.18   57.94
   1  -7   4  296.79   57.20
   1  -7   4  122.25   56.62
  -1   7  -4  148.06   57.96
  -1   7  -4  100.56   56.56
  -1   7  -4  255.00   57.81
   1  -7   5    5.19    7.66
   1  -7   5    1.56    7.63
   1  -7   5    6.35    5.56
   1  -7   5    0.95    3.67
  -1   7  -5    0.67    5.91
  -1   7  -5    2.74    4.13
  -1   7  -5    3.43    7.16
   1  -7   6  263.38   93.48
   1  -7   6  473.38   92.33
   1  -7   6  159.41   91.74
  -1   7  -6  214.27   93.46
  -1   7  -6  216.67   91.82
  -1   7  -6  422.67   92.61
   1  -7   7  120.48   20.75
   1  -7   7  263.61   60.24
   1  -7   7  263.18   59.15
   1  -7   7  145.57   58.59
  -1   7  -7  102.65   59.28
  -1   7  -7  183.12   58.64
  -1   7  -7  231.76   59.34
   1  -7   8  618.73   98.18
   1  -7   8 1210.93  246.00
   1  -7   8 1157.99  243.08
   1  -7   8  499.54  242.52
  -1   7  -8  459.29  245.04
  -1   7  -8  609.28  242.57
  -1   7  -8  942.33  243.23
   1  -7   9   22.08   11.09
   1  -7   9    6.87    7.84
   1  -7   9   21.87    8.01
   1  -7   9    9.62    6.12
  -1   7  -9    7.47    7.46
  -1   7  -9   23.92    9.77
  -1   7  -9    8.44    6.60
   1  -7  10 2210.97  869.55
   1  -7  10 3074.07  861.97
  -1   7 -10 2495.12  862.10
  -1   7 -11   10.39    6.88
   1  -7  11    7.73   11.02
   1  -7  11    5.34   13.10
  -1   7 -11   13.03   17.48
   1  -7  12  265.16   82.10
   1  -7  12  203.02   81.36
  -1   7 -12  276.02   83.00
  -1   7 -12  221.95   82.15
   1  -7  13   12.36   13.63
  -1   7 -13   14.10   17.27
  -1   7 -13    3.49   16.58
   1  -7  14  110.95   41.55
   1  -6   0   47.86   16.08
   1  -6   0   50.45   15.93
   1  -6   0   41.35   15.60
  -1   6   0   45.44   17.20
  -1   6   0   46.46   16.39
  -1   6   0   41.65   15.34
   1  -6   1    3.39    4.40
   1  -6   1    0.99    5.06
   1  -6   1    1.56    3.27
  -1   6  -1    3.47    5.44
  -1   6  -1    4.12    7.40
  -1   6  -1    0.71    2.78
   1  -6   2  403.45  137.47
   1  -6   2  499.39  136.02
   1  -6   2  319.03  135.81
  -1   6  -2  389.60  137.69
  -1   6  -2  470.48  136.17
   1  -6   3  169.44   55.68
   1  -6   3  206.61   54.87
   1  -6   3  147.81   54.67
  -1   6  -3  120.77   54.59
  -1   6  -3  213.59   55.27
   1  -6   4   66.33   21.61
   1  -6   4   59.40   21.89
   1  -6   4   74.91   20.60
   1  -6   4   58.55   20.27
  -1   6  -4   51.14   21.39
  -1   6  -4   42.75   20.21
  -1   6  -4   82.60   21.24
   1  -6   5   77.51   21.27
   1  -6   5   60.53   21.08
   1  -6   5   85.61   20.56
   1  -6   5   30.43   19.98
  -1   6  -5   65.83   21.08
  -1   6  -5   32.52   19.94
  -1   6  -5   87.85   21.77
   1  -6   6  135.39   19.65
  -1   6  -6  135.69   19.98
   1  -6   6  251.30   59.42
   1  -6   6  237.09   57.92
   1  -6   6  163.67   57.75
  -1   6  -6  130.28   57.60
  -1   6  -6  208.37   58.17
   1  -6   7 3587.79  921.88
   1  -6   7 2862.85  921.75
   1  -6   7 3248.79  913.54
   1  -6   7 2501.32  913.39
  -1   6  -7 2158.02  921.52
  -1   6  -7 2335.61  913.33
  -1   6  -7 3225.38  913.71
   1  -6   8   17.37   10.18
   1  -6   8    5.55    6.23
   1  -6   8   17.25    5.63
   1  -6   8    7.22    5.41
  -1   6  -8    4.27    5.38
  -1   6  -8   15.44   10.38
  -1   6  -8    7.85    6.23
  -1   6  -8   16.33    8.51
   1  -6   9  675.89  158.82
   1  -6   9 2102.77  387.61
   1  -6   9 1912.94  383.65
   1  -6   9  727.17  383.07
  -1   6  -9  681.64  386.62
  -1   6  -9 1565.70  387.40
  -1   6  -9 1802.66  383.94
  -1   6  -9  937.88  383.08
   1  -6  10  838.25  218.18
   1  -6  10  896.24  215.90
  -1   6 -10  730.14  218.21
  -1   6 -10  866.57  216.17
  -1   6 -10  284.32  215.05
   1  -6  11 1953.38  624.48
   1  -6  11 2051.67  618.81
  -1   6 -11 1614.09  624.44
   1  -6  12    8.32   11.53
   1  -6  12    1.32   10.92
  -1   6 -12   15.49   14.19
   1  -6  13   95.01   34.79
  -1   6 -13   90.70   36.33
   1  -6  14  663.56  124.08
  -1   6 -14   -3.02  122.00
   1  -5   0   14.75    5.91
   1  -5   0   17.91    6.04
   1  -5   0    7.97    6.03
  -1   5   0   17.68    7.62
  -1   5   0   11.94    6.43
  -1   5   0    7.52    5.01
   1  -5   1  580.46  187.17
   1  -5   1  711.59  185.34
   1  -5   1  441.99  185.18
  -1   5  -1  601.24  187.33
  -1   5  -1  670.10  185.40
  -1   5  -1  463.14  185.12
   1  -5   2   22.28    6.22
   1  -5   2   14.05    6.02
   1  -5   2    7.86    4.90
  -1   5  -2   11.43    6.93
  -1   5  -2    7.59    5.00
  -1   5  -2   10.62    6.58
   1  -5   3    7.41    6.15
   1  -5   3    5.38    5.74
   1  -5   3    9.76    4.82
   1  -5   3    8.97    3.82
  -1   5  -3    4.88    5.88
  -1   5  -3    5.39    3.96
  -1   5  -3   10.10    6.03
   1  -5   4 1998.70  594.32
   1  -5   4 1627.86  594.09
   1  -5   4 2622.57  588.86
   1  -5   4 1710.12  588.72
  -1   5  -4 1331.48  593.99
  -1   5  -4 1467.90  588.64
  -1   5  -4 1975.02  588.88
   1  -5   5  149.07   46.15
   1  -5   5  128.82   45.90
   1  -5   5  182.57   45.12
   1  -5   5  115.07   44.91
  -1   5  -5  108.37   45.92
  -1   5  -5  108.91   44.80
  -1   5  -5  180.59   45.60
   1  -5   6 1347.97  364.80
   1  -5   6  945.93  364.68
   1  -5   6 1271.18  361.12
   1  -5   6  938.75  361.01
  -1   5  -6  855.28  364.54
  -1   5  -6 1153.22  364.70
  -1   5  -6 1189.87  361.23
   1  -5   7  633.41  157.48
   1  -5   7  413.58  157.03
   1  -5   7  434.10  155.39
  -1   5  -7  308.97  156.90
  -1   5  -7  570.43  157.49
  -1   5  -7  521.82  155.41
  -1   5  -7  571.46  155.68
   1  -5   8 1176.52  316.16
   1  -5   8  707.51  315.69
   1  -5   8 1267.28  312.90
   1  -5   8  886.18  312.73
  -1   5  -8  667.86  315.63
  -1   5  -8 1153.55  316.23
  -1   5  -8 1125.68  313.05
   1  -5   9  105.76   26.49
   1  -5   9   53.36   25.34
   1  -5   9  118.03   25.38
   1  -5   9   47.84   24.67
  -1   5  -9   41.65   25.08
  -1   5  -9  101.57   27.07
  -1   5  -9  106.43   26.60
  -1   5  -9   57.25   24.69
   1  -5  10  425.89  102.00
   1  -5  10  357.69  100.37
   1  -5  10  207.55   99.96
  -1   5 -10  404.16  102.06
  -1   5 -10  377.50  100.71
  -1   5 -10  214.13   99.84
   1  -5  11   10.34    9.62
   1  -5  11    6.04    7.57
   1  -5  11    2.09    7.52
  -1   5 -11   12.14   11.41
  -1   5 -11    2.06    8.77
  -1   5 -11    2.96    5.66
   1  -5  12  159.75   57.54
  -1   5 -12  173.27   58.15
   1  -5  13  111.07   39.04
  -1   5 -13   97.82   38.55
   1  -5  14   -1.77   16.49
  -1   5 -14   -1.14   14.73
   1  -4   0   53.47   20.83
   1  -4   0   70.08   20.37
   1  -4   0   56.44   20.40
  -1   4   0   66.37   21.28
  -1   4   0   75.39   20.62
  -1   4   0   50.65   20.24
   1  -4   1   97.62   37.60
   1  -4   1  138.55   37.00
   1  -4   1  136.96   36.92
  -1   4  -1  121.61   37.91
  -1   4  -1  130.38   37.12
  -1   4  -1   77.71   36.75
   1  -4   2  148.15   51.60
   1  -4   2  126.75   51.57
   1  -4   2  194.93   50.79
   1  -4   2  131.96   50.60
  -1   4  -2  131.67   51.67
  -1   4  -2  158.79   50.62
  -1   4  -2  177.42   50.90
   1  -4   3  785.54  113.60
   1  -4   3  981.44  281.21
   1  -4   3  912.15  278.26
   1  -4   3  859.25  278.24
  -1   4  -3  697.75  280.98
  -1   4  -3  798.74  278.19
  -1   4  -3  913.30  278.30
   1  -4   4   38.72   13.14
   1  -4   4   31.62   12.29
   1  -4   4   35.69   11.43
   1  -4   4   31.16   11.43
  -1   4  -4   27.29   12.61
  -1   4  -4   34.56   13.00
  -1   4  -4   23.40   11.21
  -1   4  -4   45.76   12.23
   1  -4   5 1082.63  380.33
   1  -4   5 1300.22  380.54
   1  -4   5 1580.12  376.81
   1  -4   5 1044.06  376.66
  -1   4  -5 1152.06  380.38
  -1   4  -5 1102.34  380.39
  -1   4  -5  851.88  376.58
  -1   4  -5 1257.29  376.81
   1  -4   6  207.36   59.83
   1  -4   6  155.14   59.62
   1  -4   6  195.10   58.77
   1  -4   6  180.78   58.70
  -1   4  -6  133.39   59.50
  -1   4  -6  212.51   60.07
  -1   4  -6  167.72   58.67
  -1   4  -6  208.72   58.93
   1  -4   7 1912.16  715.90
   1  -4   7 2071.38  715.88
   1  -4   7 2195.00  709.51
  -1   4  -7 2087.48  715.81
  -1   4  -7 2186.02  716.04
  -1   4  -7 1982.77  709.45
  -1   4  -7 3128.81  709.80
   1  -4   8  259.34   84.15
   1  -4   8  346.58   83.07
  -1   4  -8  193.42   83.95
  -1   4  -8  281.75   84.32
  -1   4  -8  215.18   82.85
   1  -4   9  534.33  156.34
   1  -4   9  386.53  156.22
   1  -4   9  420.82  154.36
  -1   4  -9  424.46  156.18
  -1   4  -9  519.80  156.41
  -1   4  -9  558.67  154.60
   1  -4  10   11.60    6.92
   1  -4  10    7.24    5.93
  -1   4 -10   10.47    6.70
   1  -4  11 1060.39  339.87
  -1   4 -11  973.95  339.91
   1  -4  12   55.64   20.63
  -1   4 -12   47.57   21.08
   1  -4  13   13.19   12.73
  -1   4 -13   16.27   15.43
   1  -4  14  276.95   53.28
  -1   4 -14    6.43   52.09
   1  -3   0 2713.89 1091.29
   1  -3   0 3490.20 1081.89
   1  -3   0 3686.85 1081.93
  -1   3   0 2997.81 1091.40
  -1   3   0 3065.47 1081.91
  -1   3   0 3578.52 1081.89
   1  -3   1 1167.72  373.70
   1  -3   1 1151.87  370.13
   1  -3   1 1079.35  370.16
  -1   3  -1 1091.98  373.77
  -1   3  -1 1208.94  370.19
  -1   3  -1 1064.30  370.11
   1  -3   2  549.93  166.31
   1  -3   2  488.54  166.28
   1  -3   2  667.45  164.42
   1  -3   2  498.16  164.36
  -1   3  -2  403.30  166.16
  -1   3  -2  426.05  166.22
  -1   3  -2  398.42  164.31
  -1   3  -2  607.08  164.46
   1  -3   3  764.48  281.61
   1  -3   3  936.29  281.67
   1  -3   3 1045.59  278.83
   1  -3   3  897.83  278.79
  -1   3  -3  740.41  281.58
  -1   3  -3  777.85  281.66
  -1   3  -3  700.71  278.73
  -1   3  -3  941.16  278.84
   1  -3   4 3762.87  506.03
  -1   3  -4 3398.89  506.52
   1  -3   4 3765.77 1211.91
   1  -3   4 3852.74 1201.41
  -1   3  -4 3669.63 1211.98
  -1   3  -4 3443.05 1201.37
  -1   3  -4 3701.28 1201.46
   1  -3   5 1450.12  362.91
   1  -3   5  909.30  362.49
   1  -3   5 1146.54  359.12
   1  -3   5  932.63  359.08
  -1   3  -5  982.65  362.46
  -1   3  -5 1398.30  362.97
  -1   3  -5 1102.57  359.08
  -1   3  -5 1108.24  359.18
   1  -3   6 4536.95 1129.12
   1  -3   6 3160.52 1128.77
   1  -3   6 2820.31 1118.85
  -1   3  -6 2710.97 1128.65
  -1   3  -6 4692.75 1129.19
  -1   3  -6 3544.20 1118.96
   1  -3   7   17.10    7.15
   1  -3   7    9.65    6.39
   1  -3   7   13.86    5.45
  -1   3  -7   13.37    6.54
  -1   3  -7   14.88    7.04
  -1   3  -7   22.05    5.84
  -1   3  -7   10.03    5.13
   1  -3   8 3876.86 1009.09
   1  -3   8 2507.78 1008.80
   1  -3   8 3589.70  999.91
   1  -3   8 2577.13  999.84
  -1   3  -8 2555.03 1008.71
  -1   3  -8 3623.12 1009.13
  -1   3  -8 2991.50  999.89
   1  -3   9   91.34   23.83
   1  -3   9   50.49   23.19
  -1   3  -9   50.64   23.09
  -1   3  -9   89.66   23.74
   1  -3  10  158.05   55.11
  -1   3 -10  164.63   55.16
   1  -3  11  214.77   73.65
  -1   3 -11  218.32   73.87
   1  -3  12   28.73   12.63
  -1   3 -12   23.50   13.84
   1  -3  13  183.56   34.70
  -1   3 -13   -0.88   32.80
   1  -3  14   15.65   13.04
  -1   3 -14    1.03   15.29
   1  -2   0   21.49    8.24
   1  -2   0   27.77    7.90
   1  -2   0   18.63    7.66
  -1   2   0   24.08    8.34
  -1   2   0   23.06    7.89
  -1   2   0   24.58    7.76
   1  -2   1  170.59   51.01
   1  -2   1  133.81   50.97
   1  -2   1  178.72   50.02
   1  -2   1  154.32   50.02
  -1   2  -1  117.51   50.86
  -1   2  -1  129.36   50.92
  -1   2  -1  164.86   50.04
  -1   2  -1  147.21   50.00
   1  -2   2  404.02  136.28
   1  -2   2  436.99  136.36
   1  -2   2  385.12  134.68
  -1   2  -2  403.41  136.27
  -1   2  -2  376.14  136.34
  -1   2  -2  416.35  134.71
  -1   2  -2  425.33  134.66
   1  -2   3  875.03  268.46
   1  -2   3  742.61  268.41
   1  -2   3 1044.07  265.83
   1  -2   3  813.03  265.79
  -1   2  -3  722.82  268.37
  -1   2  -3  921.59  268.54
  -1   2  -3  847.54  265.83
  -1   2  -3  659.25  265.74
   1  -2   4   83.31   22.29
   1  -2   4   54.34   22.16
   1  -2   4   67.03   21.41
   1  -2   4   44.79   21.32
  -1   2  -4   59.86   21.97
  -1   2  -4   87.64   22.55
   1  -2   5 3621.39  946.92
   1  -2   5 3108.75  946.77
   1  -2   5 2107.86  938.33
  -1   2  -5 2565.18  946.65
  -1   2  -5 3752.49  947.08
  -1   2  -5 2362.88  938.37
   1  -2   6    1.22    4.05
   1  -2   6   -0.06    3.59
   1  -2   6    0.49    1.71
  -1   2  -6    1.31    3.36
  -1   2  -6    1.83    4.85
  -1   2  -6    1.55    2.13
  -1   2  -6    0.10    1.35
   1  -2   7  705.41  189.70
   1  -2   7  478.14  189.50
  -1   2  -7  470.62  189.35
  -1   2  -7  710.95  189.86
   1  -2   8  227.10   65.99
   1  -2   8  151.10   65.82
  -1   2  -8  174.36   65.65
  -1   2  -8  253.18   66.20
   1  -2   9  283.50   79.58
   1  -2   9  187.48   79.63
  -1   2  -9  206.85   79.50
  -1   2  -9  262.83   79.69
   1  -2  10    9.43    6.34
  -1   2 -10   10.20    6.16
   1  -2  11   53.36   20.70
  -1   2 -11   60.33   20.76
   1  -2  12  206.19   68.05
  -1   2 -12  192.02   68.13
   1  -2  13   52.09   15.56
  -1   2 -13    3.66   14.90
   1  -1   1   34.24   11.60
   1  -1   1   28.12   11.59
   1  -1   1   35.68   11.13
   1  -1   1   35.20   11.13
  -1   1  -1   31.01   11.55
  -1   1  -1   36.02   11.72
  -1   1  -1   39.87   11.16
  -1   1  -1   30.73   11.11
  -1   1  -2  296.91   55.45
   1  -1   2  415.84  140.12
   1  -1   2  534.76  138.53
   1  -1   2  444.66  138.53
  -1   1  -2  379.29  140.04
  -1   1  -2  395.03  138.52
  -1   1  -2  470.24  138.53
   1  -1   3    2.40    2.30
   1  -1   3    5.15    2.79
   1  -1   3    5.71    1.90
  -1   1  -3    3.70    2.42
  -1   1  -3    5.10    2.87
  -1   1  -3    5.01    2.40
  -1   1  -3    4.41    1.71
   1  -1   5 1456.55  470.26
   1  -1   5 1433.93  470.38
  -1   1  -5 1388.69  470.25
  -1   1  -5 1371.88  470.32
   1  -1   6  253.47   84.05
   1  -1   6  253.72   84.23
  -1   1  -6  239.05   84.06
  -1   1  -6  259.28   84.12
  -1   1  -7  263.21   33.43
   1  -1   7  258.35   88.62
   1  -1   7  285.38   88.90
  -1   1  -7  258.68   88.67
   1  -1   8  562.15  174.14
   1  -1   8  488.34  174.35
  -1   1  -8  516.19  174.27
  -1   1  -8  505.03  174.20
   1  -1   9  639.76  188.94
   1  -1   9  470.65  189.15
  -1   1  -9  512.77  189.12
  -1   1  -9  598.53  189.04
   1  -1  10   48.48   18.89
  -1   1 -10   51.80   19.03
   1  -1  11   36.35   12.91
  -1   1 -11   21.76   12.67
   1  -1  12  102.05   36.50
  -1   1 -12  108.59   36.82
   1  -1  13    1.40    9.77
  -1   1 -13   -5.20   10.81
   1   0   1 1108.74  344.80
   1   0   1 1041.33  344.86
   1   0   1 1033.71  341.60
   1   0   1 1037.97  341.60
  -1   0  -1  990.54  344.78
  -1   0  -1 1080.36  344.88
  -1   0  -1  966.67  341.60
   1   0   2 1211.09  382.50
   1   0   2 1179.39  382.61
  -1   0  -2 1125.23  382.51
  -1   0  -2 1073.15  382.57
   1   0   4   31.39    0.83
   1   0   4   33.17   11.04
  -1   0  -4   31.46   11.11
  -1   0  -4   27.68   11.22
   1   0   5 2263.11  761.49
   1   0   5 2241.81  761.59
  -1   0  -5 2343.72  761.57
  -1   0  -5 2312.64  761.58
   1   0   6  391.23  128.12
   1   0   6  372.10  128.24
  -1   0  -6  366.55  128.13
  -1   0  -6  405.95  128.25
   1   0   7   15.27    6.20
   1   0   7   16.92    7.24
  -1   0  -7    7.42    6.32
  -1   0  -7   14.71    6.40
   1   0   8    4.21    4.23
  -1   0  -8    0.76    5.20
  -1   0  -8    5.67    4.43
   1   0   9   34.47   12.90
  -1   0  -9   34.02   13.00
   1   0  10   38.64   15.39
  -1   0 -10   43.72   15.81
   1   0  11    8.10   10.81
  -1   0 -11   14.37   10.04
   1   0  12  191.32   37.65
  -1   0 -12    3.02   36.56
   1   1   0  511.40  174.59
   1   1   0  522.50  172.84
   1   1   0  474.55  172.83
  -1  -1   0  497.79  174.58
  -1  -1   0  619.23  172.85
   1   1   1  687.79  211.02
   1   1   1  567.29  211.02
   1   1   1  685.15  208.96
  -1  -1  -1  550.22  210.95
  -1  -1  -1  663.13  211.09
  -1  -1  -1  669.11  208.94
  -1  -1  -1  722.05  209.00
   1   1   3  258.11   86.34
   1   1   3  251.73   86.42
  -1  -1  -3  262.78   86.34
  -1  -1  -3  259.36   86.45
  -1  -1  -4  213.86   26.18
   1   1   4  204.45   70.47
   1   1   4  214.03   70.68
  -1  -1  -4  212.14   70.58
   1   1   5   74.29    6.70
   1   1   5   76.24   25.67
  -1  -1  -5   71.52   25.48
  -1  -1  -5   75.85   25.59
   1   1   6 2595.79  349.40
   1   1   6 2349.97  840.48
  -1  -1  -6 2579.12  840.65
  -1  -1  -6 2650.60  840.62
   1   1   7    1.15    3.79
   1   1   7    0.29    5.22
  -1  -1  -7    0.89    5.09
  -1  -1  -7    0.81    4.51
   1   1   8   91.30   30.85
  -1  -1  -8   87.57   31.04
   1   1   9  607.40  203.41
  -1  -1  -9  611.17  203.49
   1   1  10  654.41  220.13
  -1  -1 -10  664.07  220.18
   1   1  11  139.09   30.87
  -1  -1 -11   23.44   29.91
   1   1  12  886.56  158.65
  -1  -1 -12   -1.49  157.05
   1   2   0  278.99   98.16
   1   2   0  316.12   97.04
   1   2   0  308.43   97.05
  -1  -2   0  271.72   98.15
  -1  -2   0  309.61   97.02
  -1  -2   0  290.49   97.12
  -1  -2  -2  277.66   43.41
   1   2   2  340.63  111.88
   1   2   2  353.47  110.56
   1   2   2  320.15  110.61
  -1  -2  -2  384.06  110.62
   1   2   3   52.15    3.29
  -1  -2  -3   45.55    1.80
   1   2   3   56.12   17.77
   1   2   3   47.51   17.12
  -1  -2  -3   53.16   17.10
   1   2   4   21.97    8.27
   1   2   4   21.11    8.43
  -1  -2  -4   23.49    8.52
   1   2   5   26.65   10.39
   1   2   5   30.73   10.75
  -1  -2  -5   29.25   10.65
   1   2   6  523.79   78.49
   1   2   6  622.36  195.11
  -1  -2  -6  619.85  194.94
   1   2   7  142.04   46.80
   1   2   7  126.67   47.45
  -1  -2  -7  140.60   46.93
   1   2   8   27.28   10.40
  -1  -2  -8   22.23   10.70
   1   2   9   98.55   31.54
  -1  -2  -9   79.93   31.65
   1   2  10   77.49   27.84
  -1  -2 -10   75.56   27.75
   1   2  11  632.32  112.70
  -1  -2 -11    1.22  111.50
   1   3   0 6735.15 2220.14
   1   3   1  145.40   45.80
   1   3   1  144.08   45.90
   1   3   1  135.00   45.06
   1   3   1  129.06   45.15
  -1  -3  -1  134.50   45.86
  -1  -3  -1  126.78   45.08
  -1  -3  -1  129.02   45.15
   1   3   2 1836.71  616.71
   1   3   2 1878.23  616.83
   1   3   2 1878.93  611.22
   1   3   2 1803.45  611.27
  -1  -3  -2 1858.04  616.80
  -1  -3  -2 1849.43  611.23
  -1  -3  -2 1861.22  611.26
   1   3   3    3.40    2.90
   1   3   3    1.50    3.45
   1   3   3    3.67    3.17
  -1  -3  -3    0.77    3.62
  -1  -3  -3    1.52    2.60
   1   3   4   37.06    0.92
   1   3   4   35.85   13.58
   1   3   4   35.65   13.12
   1   3   4   35.27   12.60
  -1  -3  -4   41.45   13.49
  -1  -3  -4   34.18   12.80
  -1  -3  -4   39.88   12.84
   1   3   5   62.61   21.82
   1   3   5   61.07   22.40
  -1  -3  -5   64.79   22.04
   1   3   6  312.50  103.88
   1   3   6  283.99  104.48
  -1  -3  -6  321.87  104.00
   1   3   7  213.39   70.90
  -1  -3  -7  206.41   71.07
   1   3   8  313.59  109.75
  -1  -3  -8  343.19  109.97
   1   3   9  253.34   83.70
  -1  -3  -9  240.69   83.83
   1   3  10    8.75   10.26
  -1  -3 -10    6.67    9.84
   1   4   0  992.48  146.91
   1   4   0  873.80  354.98
  -1  -4   0 1103.93  358.32
  -1  -4   0 1253.13  355.02
  -1  -4   0 1105.23  355.06
   1   4   1 1023.63  294.79
   1   4   1  837.48  291.79
   1   4   1  854.79  291.90
  -1  -4  -1  871.16  291.86
  -1  -4  -1  835.98  291.87
  -1  -4  -2  159.10   16.92
   1   4   2  145.25   50.69
   1   4   2  147.44   50.88
   1   4   2  173.40   50.10
  -1  -4  -2  168.42   49.95
  -1  -4  -2  118.21   49.85
   1   4   3 2399.23  788.68
   1   4   3 2728.81  788.95
   1   4   3 2455.99  781.83
   1   4   3 2218.60  781.62
  -1  -4  -3 2394.48  788.74
  -1  -4  -3 2427.76  781.72
  -1  -4  -3 2174.29  781.67
   1   4   4  540.60  181.02
   1   4   4  569.29  181.42
   1   4   4  583.67  179.27
   1   4   4  500.93  178.98
  -1  -4  -4  543.92  181.11
  -1  -4  -4  549.74  179.11
   1   4   5  251.02   84.31
   1   4   5  241.29   84.98
  -1  -4  -5  257.71   84.47
   1   4   6  139.18   47.28
  -1  -4  -6  139.25   47.47
   1   4   7 1610.31  549.37
  -1  -4  -7 1696.91  549.53
   1   4   8   78.31   26.75
  -1  -4  -8   71.84   27.19
   1   4   9  405.10   75.98
  -1  -4  -9    2.66   74.75
   1   4  10   64.13   17.70
  -1  -4 -10    4.03   16.48
   1   5   0  124.10   40.92
   1   5   0   98.15   39.93
   1   5   0  123.63   40.20
  -1  -5   0  133.50   40.83
  -1  -5   0  108.57   39.99
  -1  -5   0  142.48   40.23
   1   5   1  196.79   54.70
   1   5   1  180.90   55.03
   1   5   1  144.79   53.72
   1   5   1  133.53   53.88
  -1  -5  -1  169.28   54.72
  -1  -5  -1  148.80   53.79
  -1  -5  -1  144.31   53.78
   1   5   2   19.57    0.97
   1   5   2   24.57    9.84
   1   5   2   21.21    8.79
   1   5   2   10.80    7.44
  -1  -5  -2   22.05    8.13
  -1  -5  -2   15.23    7.80
   1   5   3   21.75    9.04
   1   5   3   28.80   11.18
   1   5   3   16.18    8.83
  -1  -5  -3   26.06    9.48
  -1  -5  -3   25.29   10.04
  -1  -5  -3   23.05    9.58
   1   5   4  120.33   41.34
   1   5   4  129.23   42.15
   1   5   4  112.17   41.11
  -1  -5  -4  130.65   41.54
  -1  -5  -4  125.94   41.08
  -1  -5  -4  119.95   41.63
   1   5   5   91.15   25.53
   1   5   5   74.68   26.76
   1   5   5   38.44   24.84
  -1  -5  -5  100.67   25.93
  -1  -5  -5   68.25   25.62
  -1  -5  -5   54.08   25.32
   1   5   6  312.38  102.63
  -1  -5  -6  297.71  102.77
   1   5   7   31.29   14.43
  -1  -5  -7   43.65   15.50
   1   5   8  777.76  253.66
  -1  -5  -8  735.84  253.71
   1   5   9    3.63   12.58
  -1  -5  -9    5.94   12.84
   1   6   0   74.00   26.81
   1   6   0   74.16   25.61
   1   6   0   79.09   26.05
  -1  -6   0   78.94   26.51
  -1  -6   0   78.14   25.67
  -1  -6   0   70.48   26.01
   1   6   1  507.74   67.51
  -1  -6  -1  542.58   67.07
   1   6   1  563.55  170.36
   1   6   1  653.49  168.70
   1   6   1  383.10  168.02
  -1  -6  -1  579.04  168.31
  -1  -6  -1  495.59  168.25
   1   6   2  159.71   19.19
   1   6   2  191.43   59.35
   1   6   2  209.88   59.60
   1   6   2  138.03   58.39
  -1  -6  -2  214.34   59.57
   1   6   3   82.92   24.38
   1   6   3   95.01   26.26
   1   6   3   42.91   23.69
  -1  -6  -3   82.99   24.63
  -1  -6  -3   99.83   24.84
  -1  -6  -3   54.08   24.03
   1   6   4  925.46  268.64
   1   6   4  993.16  266.82
   1   6   4  605.90  265.93
  -1  -6  -4 1042.74  268.93
  -1  -6  -4  934.46  266.39
  -1  -6  -4  598.36  266.10
   1   6   5   89.80   25.47
   1   6   5   38.50   29.49
  -1  -6  -5   93.02   25.93
  -1  -6  -5   23.12   26.60
   1   6   6   33.32   14.34
  -1  -6  -6   39.43   15.17
   1   6   7   14.67   11.21
  -1  -6  -7    7.54    9.74
   1   6   8   73.84   18.95
  -1  -6  -8   -2.70   16.25
   1   7   0  404.00  102.09
   1   7   0  258.33  102.38
   1   7   0  339.63  101.18
  -1  -7   0  312.86  102.10
  -1  -7   0  208.41  100.73
   1   7   1  615.84  150.64
   1   7   1  646.72  149.58
   1   7   1  320.71  148.51
  -1  -7  -1  587.10  150.74
  -1  -7  -1  407.81  148.66
  -1  -7  -1  328.13  148.63
   1   7   2   -0.59    8.17
  -1  -7  -2   -1.15    7.24
  -1  -7  -2   -2.15   11.09
   1   7   3    4.59    8.63
   1   7   3    6.20   19.57
  -1  -7  -3    7.02   10.44
  -1  -7  -3    6.40   12.41
  -1  -7  -4  734.68  106.14
   1   7   4  863.63  262.95
   1   7   4  694.88  261.70
   1   7   5   19.62    9.72
   1   7   5   -1.80   21.56
  -1  -7  -5   14.04   10.74
  -1  -7  -5   12.69   18.16
   1   7   6  298.40  104.86
  -1  -7  -6  327.67  105.16
   1   7   7   10.02   11.09
  -1  -7  -7   -5.20   12.28
   1   8   0   96.69   28.69
   1   8   0   63.19   27.64
  -1  -8   0   87.82   28.65
  -1  -8   0   51.55   26.33
   1   8   1   25.43   14.01
   1   8   1   28.70   20.17
  -1  -8  -1   34.67   15.15
  -1  -8  -1   18.16   14.00
   1   8   2    8.20   10.34
   1   8   2    1.90   18.31
  -1  -8  -2    7.17   11.79
  -1  -8  -2    5.94   12.58
   1   8   3    6.11    9.47
   1   8   3   12.54   26.99
  -1  -8  -3    9.54   12.06
  -1  -8  -3    4.24   14.68
   1   8   4  109.82   34.00
   1   8   4   32.84   42.69
  -1  -8  -4  123.45   35.00
  -1  -8  -4   52.71   37.36
   1   8   5 1004.85  348.56
  -1  -8  -5 1093.43  348.84
   1   9   0   99.08   30.87
   1   9   0   80.80   37.05
  -1  -9   0   79.47   31.35
  -1  -9   0   61.66   29.85
   1   9   1  456.37  157.17
   1   9   1  508.99  158.04
  -1  -9  -1  467.71  157.48
  -1  -9  -1  455.29  155.82
   1   9   2  190.76   48.80
   1   9   2  134.81   59.64
  -1  -9  -2  172.00   49.07
  -1  -9  -2   -3.86   47.53
   1   9   3   11.43    5.07
   1   9   3   27.81   47.44
  -1  -9  -3   12.82   13.75
   1   9   4  193.06   64.66
  -1  -9  -4  179.02   65.24
   1  10   0   76.27   26.45
   1  10   0   99.10   36.51
  -1 -10   0   71.24   27.53
  -1 -10   0   10.98   27.50
   1  10   1   63.03   23.94
   1  10   1   68.69   39.88
  -1 -10  -1   73.07   25.26
  -1 -10  -1    2.12   24.47
   1  10   2   13.01    5.84
  -1 -10  -2   18.02   12.70
   1  10   3  484.16  164.88
  -1 -10  -3  496.69  165.54
   1  11   0   -2.66   16.24
   1  11   0   -6.26   40.21
  -1 -11   0   13.05   19.93
  -1 -11   0   -3.67   19.85
   1  11   1   -4.55   15.56
  -1 -11  -1   -3.74   13.62
   2 -14   5   -2.45   33.62
   2 -14   5  -13.94   19.67
  -2  14  -5    8.15   36.08
   2 -14   6  492.61  182.46
   2 -14   6  534.73  175.72
  -2  14  -6  530.67  179.83
   2 -14   7    7.44   38.36
   2 -14   7   12.33   15.71
  -2  14  -7    4.98   26.74
   2 -14   8 1428.43  146.35
   2 -14   8  883.32  367.64
  -2  14  -8 1321.18  372.05
   2 -14   9  131.72   63.45
   2 -13   1   -6.81   31.73
  -2  13  -1    3.59   36.35
   2 -13   2  333.82   75.80
   2 -13   2   11.06   66.75
  -2  13  -2  383.51   76.54
   2 -13   3   60.08   39.47
   2 -13   3   61.63   28.08
  -2  13  -3   69.95   38.88
   2 -13   4   42.05   35.02
   2 -13   4   49.27   24.11
  -2  13  -4   62.20   30.41
   2 -13   5   -5.61   25.49
   2 -13   5    1.17   15.33
  -2  13  -5    4.18   23.06
   2 -13   6  582.54  177.55
   2 -13   6  506.60  173.06
  -2  13  -6  474.81  174.72
   2 -13   7 1949.74  599.43
   2 -13   7 1722.09  592.05
  -2  13  -7 1762.07  593.23
   2 -13   8    0.34   26.66
   2 -13   8   10.86   15.95
  -2  13  -8    9.62   28.03
   2 -13   9    6.52   15.08
   2 -13   9   13.31   17.33
  -2  13  -9    5.73   33.46
   2 -13  10  171.24   64.26
   2 -13  10  173.04   57.97
  -2  13 -10  124.06   65.82
   2 -13  11  517.81  125.47
   2 -13  11  402.89  118.71
  -2  13 -11   16.58  118.36
   2 -12   0   27.04   26.81
   2 -12   0   -4.46   17.58
  -2  12   0    8.46   27.50
  -2  12   0   12.64   32.66
   2 -12   1   44.01   26.70
   2 -12   1   29.43   21.67
  -2  12  -1   49.52   33.84
   2 -12   2  297.79   91.13
   2 -12   2  222.35   86.70
  -2  12  -2  266.43   89.60
   2 -12   3   64.10   32.24
   2 -12   3   54.25   24.31
  -2  12  -3   67.65   31.53
   2 -12   4  267.87  100.13
   2 -12   4  304.00   96.80
  -2  12  -4  279.93   99.05
   2 -12   5   27.51   22.50
   2 -12   5   26.12   15.30
  -2  12  -5   32.58   24.23
   2 -12   6 1409.49  459.83
   2 -12   6 1347.14  454.32
  -2  12  -6 1386.16  455.34
   2 -12   7   46.11   26.86
   2 -12   7   54.67   21.37
  -2  12  -7   39.57   26.97
   2 -12   8  163.78   55.56
   2 -12   8  140.43   51.80
  -2  12  -8  145.04   56.36
   2 -12   9   26.96   24.19
   2 -12   9   34.73   18.39
  -2  12  -9   31.53   27.58
   2 -12  10   64.17   30.68
   2 -12  10   50.44   25.25
  -2  12 -10   62.67   36.71
   2 -12  11    9.90   23.38
   2 -12  11    5.61   18.64
  -2  12 -11   -1.43   25.98
   2 -12  12  169.78   49.64
   2 -12  12  125.76   47.64
  -2  12 -12   -4.21   45.61
   2 -11   0   24.47   20.44
   2 -11   0   16.26   16.13
  -2  11   0   29.29   20.86
  -2  11   0   33.51   27.99
   2 -11   1   45.40   26.98
   2 -11   1   50.81   21.46
  -2  11  -1   62.65   28.45
   2 -11   2  107.22   39.70
   2 -11   2   91.37   35.54
  -2  11  -2  105.88   39.51
   2 -11   3 2349.16  818.97
   2 -11   3 2583.69  811.17
  -2  11  -3 2380.34  811.58
   2 -11   4   14.17   16.93
   2 -11   4    8.89   11.61
  -2  11  -4   24.87   19.90
   2 -11   5 1277.92  451.53
   2 -11   5 1412.20  446.70
  -2  11  -5 1337.50  447.32
   2 -11   6  847.97  276.82
   2 -11   6  805.00  273.28
  -2  11  -6  835.21  274.19
   2 -11   7 1276.66  446.78
   2 -11   7 1264.21  441.92
  -2  11  -7 1541.94  442.93
   2 -11   8  170.58   18.08
   2 -11   8  173.88   57.07
  -2  11  -8  147.64   59.11
   2 -11   9  392.19  136.52
   2 -11   9  414.03  133.98
  -2  11  -9  389.78  135.33
   2 -11  10  328.90  112.28
   2 -11  10  345.36  109.87
  -2  11 -10  283.75  111.26
   2 -11  11  554.57  141.21
   2 -11  11  503.21  138.71
  -2  11 -11   -5.76  137.88
   2 -11  12   94.97   33.36
   2 -11  12   93.61   33.30
  -2  11 -12   -1.25   38.60
   2 -11  13  399.73  138.49
   2 -10   0  695.34  260.62
   2 -10   0  855.85  257.79
  -2  10   0  771.33  258.46
   2 -10   1   40.66   20.32
   2 -10   1   36.74   18.30
  -2  10  -1   37.46   22.42
   2 -10   2  727.17  258.21
   2 -10   2  803.87  255.35
  -2  10  -2  775.63  255.88
   2 -10   3 1041.89  418.10
   2 -10   3 1143.28  413.94
  -2  10  -3 1677.23  414.80
   2 -10   4 1446.97  510.41
   2 -10   4 1603.92  505.49
  -2  10  -4 1528.76  505.85
   2 -10   5  199.50   75.48
   2 -10   5  249.83   73.86
  -2  10  -5  201.82   74.94
   2 -10   6  416.75  142.76
   2 -10   6  429.60  140.61
  -2  10  -6  422.48  141.46
   2 -10   7    3.80   12.99
   2 -10   7    2.85    8.93
  -2  10  -7   -2.58   16.37
   2 -10   8  692.38  234.20
   2 -10   8  696.54  231.26
  -2  10  -8  709.87  232.16
   2 -10   9  177.22   64.88
  -2  10  -9  198.56   65.57
   2 -10  10    1.15    8.16
   2 -10  10   -0.61   13.84
  -2  10 -10    3.32   16.74
   2 -10  11  140.66   39.97
   2 -10  11  125.43   39.50
  -2  10 -11    1.88   40.59
   2 -10  12  335.38   36.14
   2 -10  12  432.11  101.18
  -2  10 -12   -4.53   99.30
   2 -10  13    6.21   14.95
   2 -10  14  431.51  147.01
   2  -9   0    5.86   10.10
   2  -9   0    5.47    7.29
  -2   9   0    5.25   13.54
   2  -9   1  486.37  194.08
   2  -9   1  673.93  191.96
  -2   9  -1  539.68  192.35
   2  -9   2    5.49    8.12
   2  -9   2    3.13    6.39
   2  -9   2    4.35    6.54
   2  -9   2    1.96    6.32
  -2   9  -2   -1.12    8.67
  -2   9  -2    7.25   11.81
  -2   9  -2   -1.47    5.25
  -2   9  -3  310.22   53.18
   2  -9   3  622.09  139.57
   2  -9   3  317.29  139.06
   2  -9   3  699.15  137.83
   2  -9   3  221.25  137.10
  -2   9  -3  762.74  138.89
  -2   9  -3  318.87  137.10
   2  -9   4  143.94   32.52
   2  -9   4   68.31   32.39
   2  -9   4  182.51   31.42
   2  -9   4   55.47   30.17
  -2   9  -4   65.48   31.92
  -2   9  -4  174.89   33.57
  -2   9  -4   47.65   30.06
  -2   9  -5  237.46   56.37
   2  -9   5  640.44  145.46
   2  -9   5  285.47  144.87
   2  -9   5  916.70  144.09
   2  -9   5  286.45  142.91
  -2   9  -5  760.29  144.65
  -2   9  -5  335.51  142.92
   2  -9   6   79.08   20.43
   2  -9   6   98.57   19.62
   2  -9   6   33.58   18.06
  -2   9  -6   91.13   20.88
  -2   9  -6   21.91   17.93
   2  -9   7  445.44  144.45
  -2   9  -7  419.80  144.88
   2  -9   8   43.64   17.84
   2  -9   8   33.42   15.41
  -2   9  -8   45.70   18.30
   2  -9   9   17.77   11.57
   2  -9   9   14.41   10.22
  -2   9  -9   10.84   11.34
   2  -9  10  661.11  239.70
   2  -9  10  763.57  237.44
   2  -9  11   44.49   18.01
  -2   9 -11   38.34   25.60
   2  -9  12  176.44   43.72
   2  -9  12  142.06   46.59
  -2   9 -12    3.90   47.95
   2  -9  13  194.35   59.76
   2  -9  13  135.50   62.84
   2  -9  14   50.78   29.64
   2  -8   0 3380.08  804.92
   2  -8   0 3392.66  797.74
   2  -8   0 1911.47  797.33
  -2   8   0 2155.49  804.92
  -2   8   0 3150.70  797.91
  -2   8   0 1678.16  797.22
   2  -8   1  300.74   88.28
   2  -8   1  342.01   87.08
   2  -8   1  161.82   86.69
  -2   8  -1  221.02   88.37
  -2   8  -1  411.61   87.66
  -2   8  -1  222.19   86.64
   2  -8   2  912.17  245.05
   2  -8   2  684.06  245.09
   2  -8   2 1136.62  242.63
   2  -8   2  582.49  242.22
  -2   8  -2  624.06  244.99
  -2   8  -2 1028.31  242.82
  -2   8  -2  484.82  242.07
   2  -8   3  189.82   43.59
   2  -8   3  103.43   43.41
   2  -8   3  189.66   42.54
   2  -8   3   95.90   42.09
  -2   8  -3   95.82   43.46
  -2   8  -3  210.18   43.40
  -2   8  -3   78.99   41.89
   2  -8   4 2625.21  389.62
   2  -8   4 3296.56  937.80
   2  -8   4 3976.29  929.58
   2  -8   4 2642.24  929.27
  -2   8  -4 1834.32  937.51
  -2   8  -4 4663.85  930.02
  -2   8  -4 1958.94  929.13
   2  -8   5  102.32   24.94
   2  -8   5   54.12   23.77
   2  -8   5   99.86   23.35
   2  -8   5   57.54   22.82
  -2   8  -5   47.86   23.71
  -2   8  -5  110.68   25.31
  -2   8  -5   42.69   22.56
   2  -8   6   11.54    9.08
   2  -8   6    4.25    8.62
   2  -8   6   10.53    7.17
  -2   8  -6    7.93    7.73
  -2   8  -6   19.58   12.82
  -2   8  -6    3.89    5.15
   2  -8   7  308.38   76.10
   2  -8   7  153.84   75.36
   2  -8   7  504.61   75.47
   2  -8   7  200.95   74.35
  -2   8  -7  140.56   75.31
  -2   8  -7  190.81   74.26
   2  -8   8  279.72   64.77
   2  -8   8  286.88   63.33
   2  -8   8  110.95   62.55
  -2   8  -8  267.47   63.85
  -2   8  -8  145.90   62.62
   2  -8   9  627.27  207.94
   2  -8   9  619.25  205.41
  -2   8  -9  614.01  205.89
   2  -8  10   69.94   29.93
   2  -8  10   94.73   30.08
  -2   8 -10   70.98   32.63
   2  -8  11  108.00   37.64
   2  -8  11   99.78   37.49
  -2   8 -11  103.56   43.78
   2  -8  12   26.73   15.15
   2  -8  12   16.52   17.92
  -2   8 -12   26.14   34.18
   2  -8  13  115.80   33.05
  -2   8 -13   41.31   39.93
   2  -8  14  952.33  318.94
   2  -7   0   41.02   16.19
   2  -7   0   86.41   16.19
   2  -7   0   30.69   15.24
  -2   7   0   24.04   16.65
  -2   7   0   71.91   16.57
  -2   7   0   22.41   15.02
   2  -7   1 1371.34  402.71
   2  -7   1 1667.79  399.01
   2  -7   1 1129.63  398.83
  -2   7  -1 1073.80  402.77
  -2   7  -1 1354.28  399.03
  -2   7  -1  871.62  398.67
   2  -7   2   50.65    1.67
   2  -7   2   48.38   16.94
   2  -7   2   70.97   16.37
   2  -7   2   37.70   16.00
  -2   7  -2   39.36   17.42
  -2   7  -2   59.65   16.79
  -2   7  -2   29.50   15.62
   2  -7   3 1365.15  433.62
   2  -7   3 1567.32  429.58
   2  -7   3 1255.79  429.43
  -2   7  -3  966.10  433.53
  -2   7  -3 1742.38  429.76
  -2   7  -3 1108.44  429.34
   2  -7   4  238.20   62.14
   2  -7   4  148.13   61.91
   2  -7   4  267.84   61.06
   2  -7   4  154.60   60.64
  -2   7  -4  126.58   61.60
  -2   7  -4  288.89   61.60
  -2   7  -4  133.95   60.55
   2  -7   5  219.99   59.52
   2  -7   5  147.14   59.55
   2  -7   5  254.38   58.56
   2  -7   5  116.09   58.07
  -2   7  -5  136.96   59.58
  -2   7  -5  388.95   59.57
  -2   7  -5   92.02   57.96
   2  -7   6   39.56   12.09
   2  -7   6   19.81    9.51
   2  -7   6   33.26   10.00
   2  -7   6   22.50    9.32
  -2   7  -6   17.39    9.48
  -2   7  -6   36.00   13.20
  -2   7  -6   17.84    8.96
   2  -7   7  326.66   70.71
   2  -7   7  161.93   70.12
   2  -7   7  316.56   69.35
   2  -7   7  163.53   68.75
  -2   7  -7  124.91   69.86
  -2   7  -7  405.37   70.08
  -2   7  -7  144.99   68.65
   2  -7   8  172.22   37.78
   2  -7   8   70.28   36.30
   2  -7   8  159.30   36.06
   2  -7   8   68.71   35.48
  -2   7  -8   62.72   36.15
  -2   7  -8  162.46   38.28
  -2   7  -8  165.83   37.09
   2  -7   9   59.31   17.31
   2  -7   9   16.94   13.28
  -2   7  -9   56.27   17.69
  -2   7  -9   79.84   19.51
  -2   7  -9   19.78   13.64
   2  -7  10   15.97   11.45
   2  -7  10   15.94   11.63
  -2   7 -10   16.03   12.11
  -2   7 -10   18.47   17.57
   2  -7  11 1828.75  587.11
  -2   7 -11 1659.49  582.16
   2  -7  12   81.66   23.15
   2  -7  12   34.27   26.01
  -2   7 -12   76.26   27.33
  -2   7 -12   45.14   29.49
   2  -7  13  603.88  201.68
  -2   7 -13  595.76  202.01
   2  -7  14  108.65   39.20
  -2   7 -14   77.30   40.54
   2  -6   0 2135.15  733.88
   2  -6   0 2954.76  727.51
   2  -6   0 2099.97  727.39
  -2   6   0 1922.89  734.05
  -2   6   0 2297.79  727.52
  -2   6   0 1884.18  727.28
   2  -6   1 1304.77  458.90
   2  -6   1 1675.43  454.80
   2  -6   1 1332.99  454.71
  -2   6  -1 1215.73  459.05
  -2   6  -1 1608.41  454.91
  -2   6  -1 1243.18  454.61
   2  -6   2  954.75  320.76
   2  -6   2  827.87  320.75
   2  -6   2 1333.55  317.81
   2  -6   2  991.31  317.64
  -2   6  -2  843.24  320.80
  -2   6  -2 1197.05  317.87
  -2   6  -2  769.45  317.51
   2  -6   3   52.08    2.48
   2  -6   3   58.73   20.63
   2  -6   3   83.02   19.92
   2  -6   3   56.30   19.71
  -2   6  -3   37.89   20.41
  -2   6  -3   77.65   20.18
  -2   6  -3   46.22   19.45
   2  -6   4  974.35  356.12
   2  -6   4 1343.60  352.73
   2  -6   4  866.43  352.54
  -2   6  -4 1141.46  356.12
  -2   6  -4 1595.96  352.92
  -2   6  -4  789.67  352.47
   2  -6   5  119.34   28.66
   2  -6   5   59.78   27.63
   2  -6   5  112.01   27.28
   2  -6   5   75.25   27.02
  -2   6  -5   60.99   27.58
  -2   6  -5  118.72   27.94
  -2   6  -5   58.62   26.84
   2  -6   6  204.49   58.73
   2  -6   6  159.90   58.36
   2  -6   6  208.24   57.30
   2  -6   6  131.34   57.00
  -2   6  -6  132.28   58.13
  -2   6  -6  158.16   58.62
  -2   6  -6  255.88   58.01
   2  -6   7  114.18   29.12
   2  -6   7   62.61   27.64
   2  -6   7  121.70   27.74
   2  -6   7   62.99   27.11
  -2   6  -7   43.25   27.37
  -2   6  -7  128.18   29.52
   2  -6   8  269.67   64.21
   2  -6   8   88.85   63.29
   2  -6   8  363.86   63.08
   2  -6   8  122.40   62.44
  -2   6  -8   91.74   63.17
  -2   6  -8  292.34   64.55
  -2   6  -8  252.36   63.24
  -2   6  -8  182.76   62.39
   2  -6   9  431.20  100.37
   2  -6   9  147.22   99.58
   2  -6   9  448.34   98.99
   2  -6   9  201.57   98.38
  -2   6  -9  114.95   99.41
  -2   6  -9  449.07  100.65
  -2   6  -9  554.95  100.14
   2  -6  10 1604.65  389.69
   2  -6  10 1898.41  386.14
   2  -6  10  740.67  385.31
  -2   6 -10 1602.03  389.81
  -2   6 -10 1680.83  386.47
  -2   6 -10  675.24  385.20
   2  -6  11  150.35   54.47
   2  -6  11  162.49   53.99
  -2   6 -11  159.67   55.08
   2  -6  12 3166.69 1039.82
  -2   6 -12 3079.46 1039.89
   2  -6  13  483.47  159.74
  -2   6 -13  464.59  160.00
   2  -6  14  160.68   34.58
  -2   6 -14    1.29   31.84
   2  -5   0    7.03    4.20
   2  -5   0    5.49    3.49
   2  -5   0   11.06    4.54
  -2   5   0    8.69    5.59
  -2   5   0    6.65    4.69
  -2   5   0    4.10    4.13
   2  -5   1 2761.73  980.91
   2  -5   1 2675.30  981.03
   2  -5   1 2838.73  972.30
   2  -5   1 3546.84  972.44
  -2   5  -1 2675.49  981.03
  -2   5  -1 3097.99  972.40
  -2   5  -1 2961.37  972.31
   2  -5   2   19.90    5.91
   2  -5   2    6.96    5.82
   2  -5   2    4.00    3.44
   2  -5   2    3.90    4.35
  -2   5  -2    3.86    4.54
  -2   5  -2    4.94    4.83
  -2   5  -2    1.46    3.49
   2  -5   3   14.13    8.33
   2  -5   3   14.15    6.95
   2  -5   3   13.48    6.02
   2  -5   3   12.86    5.92
  -2   5  -3   14.54    6.95
  -2   5  -3   14.44    6.86
  -2   5  -3   14.68    5.50
  -2   5  -4    3.13    3.68
   2  -5   4    2.95    7.21
   2  -5   4    0.80    3.79
   2  -5   4    4.34    4.15
  -2   5  -4    2.22    3.96
  -2   5  -4    2.95    4.71
  -2   5  -5   90.68   10.63
   2  -5   5  112.40   38.07
   2  -5   5  101.27   38.10
   2  -5   5  115.23   37.06
   2  -5   5  112.25   36.90
  -2   5  -5   99.58   38.24
  -2   5  -5  146.25   37.32
   2  -5   6  456.15  116.22
   2  -5   6  231.97  115.74
   2  -5   6  508.47  114.72
   2  -5   6  341.21  114.48
  -2   5  -6  237.97  115.67
  -2   5  -6  435.68  116.37
   2  -5   7   22.69    9.22
   2  -5   7    4.85    8.66
   2  -5   7   41.87    8.39
   2  -5   7   15.44    8.06
  -2   5  -7    1.93    8.64
  -2   5  -7   40.80   10.57
  -2   5  -7   32.18    9.65
  -2   5  -7   23.89    8.21
   2  -5   8  291.22   77.86
   2  -5   8  189.82   77.62
   2  -5   8  236.27   76.53
  -2   5  -8  162.50   77.44
  -2   5  -8  291.93   78.10
  -2   5  -8  417.07   77.44
  -2   5  -8  175.27   76.38
   2  -5   9  159.08   78.66
   2  -5   9  354.08   77.99
  -2   5  -9  169.23   78.63
  -2   5  -9  346.22   78.78
   2  -5  10  137.87   12.49
   2  -5  10  155.57   38.86
   2  -5  10   74.80   38.35
  -2   5 -10  116.46   39.31
  -2   5 -10  104.21   38.40
   2  -5  11  834.59  296.40
  -2   5 -11  948.03  296.62
   2  -5  12    4.20   10.58
  -2   5 -12    2.67   11.90
   2  -5  13  484.96  157.70
  -2   5 -13  449.99  157.88
   2  -5  14   20.63   17.84
  -2   5 -14    9.35   17.62
   2  -4   0  684.08  261.31
   2  -4   0  776.28  258.77
   2  -4   0  836.40  258.85
  -2   4   0  729.50  261.51
  -2   4   0  788.80  258.82
  -2   4   0  851.07  258.79
   2  -4   1 1594.21  444.42
   2  -4   1 1328.83  444.41
   2  -4   1 1370.21  440.31
  -2   4  -1  964.02  444.37
  -2   4  -1 1487.59  440.31
  -2   4  -1 1263.86  440.26
   2  -4   2 1834.22  447.56
   2  -4   2 1144.24  447.39
   2  -4   2 1072.19  443.14
   2  -4   2 1525.01  443.32
  -2   4  -2 1214.02  447.33
  -2   4  -2 1191.50  443.20
  -2   4  -2 1502.77  443.21
   2  -4   3    0.61    4.99
   2  -4   3    1.86    3.31
   2  -4   3    2.18    2.34
   2  -4   3    2.44    3.78
  -2   4  -3    2.15    3.37
  -2   4  -3    2.57    5.94
  -2   4  -3    4.87    3.72
  -2   4  -3    2.54    2.84
   2  -4   4   14.61    0.89
   2  -4   4   12.05    6.82
   2  -4   4   18.22    6.18
   2  -4   4   12.78    5.87
  -2   4  -4    8.14    6.35
  -2   4  -4   15.98    7.42
  -2   4  -4   14.81    5.36
   2  -4   5 1213.59  382.65
   2  -4   5 1044.69  382.57
   2  -4   5 1426.54  379.09
   2  -4   5 1212.86  379.03
  -2   4  -5  872.76  382.49
  -2   4  -5 1172.37  382.73
  -2   4  -5 1381.24  379.15
  -2   4  -5 1089.46  378.95
   2  -4   6   58.69   17.01
   2  -4   6   28.46   16.70
   2  -4   6   61.17   16.26
   2  -4   6   36.61   16.18
  -2   4  -6   35.76   16.81
  -2   4  -6   63.58   17.32
  -2   4  -6   50.92   17.28
  -2   4  -6   53.91   16.09
   2  -4   7  312.36   69.12
   2  -4   7  175.18   68.47
   2  -4   7  224.34   67.45
  -2   4  -7  165.12   68.35
  -2   4  -7  194.50   67.32
   2  -4   8 3169.82  842.98
   2  -4   8 1875.59  842.54
   2  -4   8 2806.35  835.10
  -2   4  -8 1847.10  842.46
  -2   4  -8 3369.36  843.07
  -2   4  -8 2508.90  835.15
  -2   4  -8 2726.29  835.02
   2  -4   9    1.33    5.92
   2  -4   9    2.33    4.94
  -2   4  -9    2.51    4.85
  -2   4  -9    5.11    6.45
   2  -4  10  167.29   57.13
  -2   4 -10  166.70   57.52
   2  -4  11   61.70   23.48
  -2   4 -11   66.74   24.22
   2  -4  12  461.27  151.54
  -2   4 -12  441.69  151.63
   2  -4  13  236.23   81.05
  -2   4 -13  240.12   81.26
   2  -4  14  150.30   32.22
  -2   4 -14    7.56   31.62
   2  -3   0  244.59   81.21
   2  -3   0  217.01   81.26
   2  -3   0  283.53   80.17
   2  -3   0  231.02   80.07
  -2   3   0  225.19   81.28
  -2   3   0  236.52   80.13
  -2   3   0  260.02   80.11
   2  -3   1   13.28    7.12
   2  -3   1   10.93    6.01
   2  -3   1   15.69    5.48
   2  -3   1   17.57    5.52
  -2   3  -1   10.18    5.91
  -2   3  -1   15.44    6.85
  -2   3  -1   16.41    5.80
  -2   3  -1   17.16    5.39
   2  -3   2 1505.22  482.00
   2  -3   2 1385.22  482.09
   2  -3   2 1561.41  477.56
  -2   3  -2 1408.27  482.08
  -2   3  -2 1432.02  477.55
  -2   3  -2 1399.48  477.51
   2  -3   3   44.38    1.02
   2  -3   3   30.92   10.94
   2  -3   3   28.67   10.22
   2  -3   3   31.61   10.28
  -2   3  -3   22.53   10.67
  -2   3  -3   36.40   10.48
  -2   3  -3   27.04   10.18
   2  -3   4  138.92   48.82
   2  -3   4  188.60   48.05
   2  -3   4  143.07   47.94
  -2   3  -4  130.85   48.74
  -2   3  -4  160.10   48.08
  -2   3  -4  129.85   47.89
   2  -3   5   79.22   23.74
   2  -3   5   60.42   23.74
   2  -3   5   86.93   23.07
   2  -3   5   47.15   22.83
  -2   3  -5   63.18   23.56
  -2   3  -5   83.89   23.86
  -2   3  -5   92.61   23.30
  -2   3  -5   50.26   22.82
   2  -3   6    7.85    5.02
   2  -3   6    7.42    4.62
   2  -3   6    9.85    3.51
   2  -3   6    7.86    3.19
  -2   3  -6    5.26    4.76
  -2   3  -6    9.36    5.08
  -2   3  -6    5.08    2.97
   2  -3   7 2185.26  824.24
   2  -3   7 3030.15  816.91
  -2   3  -7 2209.09  824.17
  -2   3  -7 2480.03  816.92
  -2   3  -7 2639.35  816.85
   2  -3   8   32.97   11.26
   2  -3   8   23.55   11.23
  -2   3  -8   26.19   11.22
  -2   3  -8   33.17   11.26
   2  -3   9 2806.56  790.72
   2  -3   9 1897.64  790.79
  -2   3  -9 1760.72  790.66
  -2   3  -9 2875.68  790.83
   2  -3  10  219.72   69.54
  -2   3 -10  190.39   69.54
   2  -3  11  826.28  262.66
  -2   3 -11  746.65  262.61
   2  -3  12  112.41   38.47
  -2   3 -12  104.03   38.72
   2  -3  13   10.96   10.13
  -2   3 -13   -2.27   10.61
   2  -2   0   14.98    6.22
   2  -2   0   15.65    6.24
   2  -2   0   14.42    5.46
   2  -2   0   15.10    5.57
  -2   2   0   17.02    6.16
  -2   2   0   27.79    6.73
  -2   2   0   13.43    5.68
  -2   2   0   10.98    5.37
   2  -2   1   78.64   20.13
   2  -2   1   48.20   19.22
   2  -2   1   57.87   19.24
  -2   2  -1   47.53   19.70
  -2   2  -1   65.43   20.17
  -2   2  -1   57.94   19.28
  -2   2  -1   62.94   19.23
   2  -2   2 3012.20  805.65
   2  -2   2 2217.91  805.45
   2  -2   2 1938.39  798.34
  -2   2  -2 2678.46  805.42
  -2   2  -2 3118.42  805.80
  -2   2  -2 2525.18  798.39
  -2   2  -2 2126.58  798.34
   2  -2   3  214.78   65.73
   2  -2   3  183.79   65.80
   2  -2   3  206.51   64.77
  -2   2  -3  164.76   65.69
  -2   2  -3  216.55   65.86
  -2   2  -3  196.86   64.80
  -2   2  -3  194.15   64.75
  -2   2  -4   84.47   11.29
   2  -2   4   81.19   37.01
   2  -2   4  116.14   37.21
  -2   2  -4  132.76   37.18
  -2   2  -4  146.99   36.45
   2  -2   5  893.54  295.00
   2  -2   5  831.39  295.07
   2  -2   5 1091.52  292.16
  -2   2  -5  825.61  294.99
  -2   2  -5  857.77  295.09
  -2   2  -5 1055.77  292.19
  -2   2  -5  826.60  292.09
   2  -2   6  172.90   58.35
   2  -2   6  168.84   58.53
  -2   2  -6  174.59   58.40
  -2   2  -6  178.06   58.47
   2  -2   7   74.74   22.26
   2  -2   7   50.94   22.45
  -2   2  -7   54.21   22.27
  -2   2  -7   75.02   22.45
   2  -2   8 2352.79  699.25
   2  -2   8 1747.94  699.25
  -2   2  -8 1966.46  699.16
  -2   2  -8 2335.93  699.38
   2  -2   9  374.74  128.13
  -2   2  -9  391.67  128.30
   2  -2  10  979.68  325.45
  -2   2 -10  972.09  325.57
   2  -2  11  262.43   87.88
  -2   2 -11  259.82   87.93
   2  -2  12   81.26   25.80
  -2   2 -12   60.90   25.61
   2  -2  13   22.77   11.80
  -2   2 -13   -1.20   12.96
   2  -1   0   44.41   15.72
   2  -1   0   53.44   15.81
   2  -1   0   48.19   15.34
   2  -1   0   46.13   15.32
  -2   1   0   42.64   15.72
  -2   1   0   43.59   15.77
  -2   1   0   46.35   15.34
  -2   1   0   45.36   15.31
   2  -1   1  418.05  130.54
   2  -1   1  375.51  130.56
   2  -1   1  348.52  129.10
  -2   1  -1  394.39  130.50
  -2   1  -1  494.36  130.66
  -2   1  -1  388.58  129.11
  -2   1  -1  359.66  129.09
   2  -1   2 1245.33  415.22
   2  -1   2 1279.71  415.27
   2  -1   2 1171.45  411.38
   2  -1   2 1208.59  411.38
  -2   1  -2 1298.47  415.18
  -2   1  -2 1257.66  415.32
  -2   1  -2 1280.08  411.39
   2  -1   3 1306.93  242.98
   2  -1   3 2191.03  584.95
   2  -1   3 1558.88  579.53
   2  -1   3 1726.88  579.53
  -2   1  -3 2059.67  584.83
  -2   1  -3 1730.40  579.55
   2  -1   4  838.93  270.82
   2  -1   4  804.93  270.92
  -2   1  -4  820.22  270.82
  -2   1  -4  778.43  270.91
   2  -1   5 2080.97  629.65
   2  -1   5 1759.66  629.78
  -2   1  -5 1738.68  629.64
  -2   1  -5 1951.33  629.73
  -2   1  -6  247.21   29.22
   2  -1   6  239.34   77.79
   2  -1   6  228.92   78.00
  -2   1  -6  211.98   77.84
   2  -1   7  627.08  215.94
   2  -1   7  630.82  216.15
  -2   1  -7  643.88  216.07
  -2   1  -7  689.50  216.05
   2  -1   8  169.22   50.87
   2  -1   8  131.81   51.09
  -2   1  -8  137.31   51.04
  -2   1  -8  153.31   50.96
   2  -1   9  506.11  167.07
  -2   1  -9  493.17  167.20
   2  -1  10   22.94    9.98
  -2   1 -10   14.94   10.04
   2  -1  11  440.25  143.35
  -2   1 -11  411.86  143.42
  -2   1 -12    4.98    4.30
   2  -1  12    3.48    7.55
   2   0   0    2.43    2.10
   2   0   0    3.80    2.24
   2   0   0    2.76    2.26
   2   0   0    9.28    2.13
  -2   0   0    1.97    2.03
  -2   0   0    2.34    2.33
  -2   0   0    8.86    2.23
  -2   0   0    1.91    2.17
   2   0   1  128.66   37.20
   2   0   1  100.77   37.23
   2   0   1  119.09   36.56
   2   0   1  107.20   36.54
  -2   0  -1  103.56   37.16
  -2   0  -1  112.03   37.30
  -2   0  -1  110.76   36.55
  -2   0  -1  100.30   36.56
   2   0   2  300.37   94.88
   2   0   2  257.75   94.95
   2   0   2  443.05   93.78
   2   0   2  216.72   93.71
  -2   0  -2  313.62   94.91
  -2   0  -2  267.41   94.96
  -2   0  -2  221.25   93.71
  -2   0  -2  284.13   93.76
   2   0   3  201.48   70.52
   2   0   3  214.53   70.61
  -2   0  -3  219.46   70.54
  -2   0  -3  207.11   70.63
   2   0   4 2117.53  713.08
   2   0   4 2236.08  713.17
  -2   0  -4 2103.29  713.08
  -2   0  -4 2130.76  713.19
  -2   0  -5   91.56    8.43
   2   0   5   87.63   29.33
   2   0   5   81.36   29.60
  -2   0  -5   83.24   29.43
   2   0   6 7225.18 1010.56
   2   0   6 6778.12 2407.77
  -2   0  -6 7670.09 2407.74
   2   0   7   64.55   22.30
   2   0   7   59.12   22.96
  -2   0  -7   63.34   22.56
  -2   0  -7   67.93   22.49
   2   0   8  477.48  156.91
  -2   0  -8  460.47  157.00
   2   0   9  361.13  116.65
  -2   0  -9  333.13  116.68
   2   0  10  104.25   33.58
  -2   0 -10   88.27   33.75
   2   0  11  112.38   40.28
  -2   0 -11  119.61   40.43
   2   0  12    4.87   11.51
  -2   0 -12    2.01   10.14
   2   1   0 1899.44  581.34
   2   1   0 1613.84  581.36
   2   1   0 1858.90  576.22
   2   1   0 1669.56  576.21
  -2  -1   0 1647.52  581.41
  -2  -1   0 1874.85  576.21
  -2  -1   0 1598.77  576.22
   2   1   1  478.58  135.34
   2   1   1  392.25  135.32
   2   1   1  439.20  133.87
  -2  -1  -1  408.03  135.25
  -2  -1  -1  376.94  135.37
  -2  -1  -1  307.12  133.82
  -2  -1  -1  432.85  133.91
   2   1   2   62.12   21.49
   2   1   2   65.74   21.60
   2   1   2   61.10   20.98
   2   1   2   62.08   20.96
  -2  -1  -2   63.25   21.51
  -2  -1  -2   63.34   21.64
  -2  -1  -2   64.14   20.95
  -2  -1  -2   60.78   21.04
   2   1   3   36.06   11.88
   2   1   3   41.43   12.14
   2   1   3   30.00   11.23
  -2  -1  -3   36.06   11.99
  -2  -1  -3   34.16   12.08
  -2  -1  -3   25.71   11.23
  -2  -1  -3   33.10   11.45
   2   1   4   25.98    8.38
   2   1   4   18.30    8.69
  -2  -1  -4   21.03    8.60
  -2  -1  -4   22.93    8.60
   2   1   5 7717.45 2789.77
   2   1   5 8639.04 2790.01
  -2  -1  -5 9029.43 2789.92
   2   1   6  240.81   82.55
   2   1   6  232.56   82.89
  -2  -1  -6  253.41   82.83
  -2  -1  -6  256.71   82.72
   2   1   7  420.81   55.05
   2   1   7  365.24   53.27
  -2  -1  -7  412.88  139.79
  -2  -1  -7  452.06  139.60
   2   1   8  950.80  310.75
  -2  -1  -8  909.56  310.85
   2   1   9  162.15   54.77
  -2  -1  -9  159.77   54.88
   2   1  10   17.41    9.29
  -2  -1 -10   13.55    9.68
   2   1  11  128.00   25.46
  -2  -1 -11    0.16   24.29
   2   2   0 1953.80  681.61
   2   2   0 1978.99  681.68
   2   2   0 2068.62  675.67
   2   2   0 2226.83  675.69
  -2  -2   0 2008.80  681.69
  -2  -2   0 2115.01  675.65
  -2  -2   0 2048.98  675.73
   2   2   1  149.25   45.87
   2   2   1  121.96   45.87
   2   2   1  147.54   45.20
   2   2   1  138.48   45.18
  -2  -2  -1  141.06   45.97
  -2  -2  -1  120.41   45.13
  -2  -2  -1  140.37   45.43
   2   2   2  591.70  195.14
   2   2   2  562.08  195.20
   2   2   2  587.85  193.17
   2   2   2  577.05  193.16
  -2  -2  -2  616.05  195.24
  -2  -2  -2  597.15  193.15
  -2  -2  -2  552.68  193.20
  -2  -2  -3    3.18    0.69
   2   2   3    4.17    3.07
   2   2   3    3.90    3.21
   2   2   3    3.64    2.19
   2   2   3    2.88    2.57
  -2  -2  -3    4.02    2.49
   2   2   4 2916.68  983.18
   2   2   4 3016.42  983.39
  -2  -2  -4 2956.94  983.30
   2   2   5   58.55    2.57
  -2  -2  -5   65.09    5.12
   2   2   5   66.12   22.09
   2   2   6   92.63   10.65
   2   2   6  103.66   35.47
  -2  -2  -6  110.74   35.03
   2   2   7   43.86   16.54
  -2  -2  -7   47.31   17.05
   2   2   8   38.76   13.66
  -2  -2  -8   30.20   13.97
   2   2   9   38.28   14.59
  -2  -2  -9   32.24   14.70
   2   2  10  112.34   40.63
  -2  -2 -10  121.49   40.92
   2   2  11    5.08    7.60
  -2  -2 -11   -3.39    7.06
   2   3   0  930.53  313.03
   2   3   0  946.31  313.15
   2   3   0  824.60  310.15
   2   3   0 1055.79  310.20
  -2  -3   0  980.03  313.13
  -2  -3   0  898.71  310.15
  -2  -3   0  939.62  310.26
   2   3   1 2910.54  861.05
   2   3   1 2672.29  861.14
   2   3   1 2470.42  853.54
   2   3   1 2329.16  853.54
  -2  -3  -1 2636.98  861.13
  -2  -3  -1 2474.11  853.54
  -2  -3  -1 2383.12  853.59
   2   3   2   32.79    1.05
   2   3   2   38.21   12.14
   2   3   2   28.20   11.57
   2   3   2   32.78   12.05
  -2  -3  -2   38.87   12.38
  -2  -3  -2   29.66   12.04
   2   3   3 7227.54 2776.64
  -2  -3  -3 8532.99 2800.55
  -2  -3  -3 9999.00 2776.76
   2   3   4  521.40  169.85
   2   3   4  537.70  170.23
  -2  -3  -4  483.52  169.96
  -2  -3  -4  619.33  168.06
  -2  -3  -4  403.32  167.92
   2   3   5  131.59   42.28
   2   3   5  115.60   42.97
  -2  -3  -5  121.31   42.42
   2   3   6    2.05    4.92
  -2  -3  -6    0.78    5.96
   2   3   7  715.61  242.19
  -2  -3  -7  738.08  242.36
   2   3   8  149.71   49.30
  -2  -3  -8  137.39   49.48
   2   3   9  424.71   55.78
  -2  -3  -9  426.05   55.33
   2   3  10   33.35   13.20
  -2  -3 -10    4.86   12.22
  -2  -4   0  155.96   23.22
   2   4   0  233.15   65.26
   2   4   0  200.16   64.19
   2   4   0  185.18   64.20
  -2  -4   0  189.94   64.13
  -2  -4   0  194.13   64.30
   2   4   1  244.20   83.44
   2   4   1  254.34   83.67
   2   4   1  255.67   82.48
  -2  -4  -1  245.87   83.56
  -2  -4  -1  236.18   82.42
  -2  -4  -1  266.90   82.61
   2   4   2 6766.42 2307.53
   2   4   2 6022.70 2287.86
   2   4   2 7955.96 2288.05
  -2  -4  -2 7728.83 2287.98
  -2  -4  -2 6693.68 2287.97
   2   4   3   26.84    8.98
   2   4   3   21.26   10.26
   2   4   3   13.75    8.34
  -2  -4  -3   27.52    9.30
  -2  -4  -3   31.20    9.41
  -2  -4  -3   18.37    9.24
   2   4   4  253.12   29.01
   2   4   4  269.54   82.43
   2   4   4  279.62   81.54
   2   4   4  204.66   81.11
  -2  -4  -4  279.39   82.61
  -2  -4  -4  291.27   81.46
  -2  -4  -4  194.31   81.22
   2   4   5  332.53  112.77
  -2  -4  -5  341.81  112.97
   2   4   6  700.67  224.62
  -2  -4  -6  642.04  224.69
   2   4   7    9.58    7.47
  -2  -4  -7   14.00    8.73
  -2  -4  -8   23.26    2.51
   2   4   8   25.41   11.21
   2   4   9   46.51   15.75
  -2  -4  -9    5.08   15.39
   2   5   0  241.02   71.70
   2   5   0  205.10   71.90
   2   5   0  176.31   70.66
   2   5   0  206.26   70.77
  -2  -5   0  231.31   71.78
  -2  -5   0  230.04   70.72
  -2  -5   0  195.06   70.88
   2   5   1  851.42  277.91
   2   5   1  907.59  278.22
   2   5   1  742.60  275.14
   2   5   1  911.99  275.38
  -2  -5  -1  821.35  278.02
  -2  -5  -1  920.36  275.30
  -2  -5  -1  736.38  275.26
   2   5   2    5.28    5.14
   2   5   2    3.27    8.82
   2   5   2    4.27    6.09
   2   5   2   22.16    9.92
  -2  -5  -2    3.97    5.92
  -2  -5  -2   18.99    6.78
   2   5   3  424.24  139.58
   2   5   3  514.61  138.64
  -2  -5  -3  414.01  139.69
  -2  -5  -3  542.68  138.36
  -2  -5  -3  282.85  137.91
   2   5   4  483.67  115.16
   2   5   4  379.45  114.04
   2   5   4  210.16  113.40
  -2  -5  -4  530.75  115.51
  -2  -5  -4  342.80  113.89
  -2  -5  -4  205.67  113.48
  -2  -5  -5   41.00    2.82
   2   5   5   40.77   15.65
   2   5   6  163.33   56.56
  -2  -5  -6  170.39   56.81
   2   5   7  207.30   70.04
  -2  -5  -7  205.33   70.35
   2   5   8   75.11   32.06
  -2  -5  -8  101.33   32.66
   2   6   0 2797.00  844.08
   2   6   0 2370.76  836.47
   2   6   0 2748.09  836.79
  -2  -6   0 2796.87  844.18
  -2  -6   0 2343.72  836.58
  -2  -6   0 2277.02  836.62
   2   6   1 1145.34  294.97
   2   6   1  739.62  291.90
   2   6   1  850.94  292.18
  -2  -6  -1  906.58  295.00
  -2  -6  -1 1005.54  292.16
  -2  -6  -1  665.11  291.97
   2   6   2  720.23  198.74
   2   6   2  643.64  197.15
   2   6   2  367.56  196.32
  -2  -6  -2  721.86  198.87
  -2  -6  -2  613.12  196.79
   2   6   3  320.60  112.44
   2   6   3  356.03  112.43
  -2  -6  -3  347.15  112.73
  -2  -6  -3  324.38  111.82
   2   6   4  213.21   69.67
   2   6   4  173.13   70.44
  -2  -6  -4  224.67   70.07
  -2  -6  -4  193.92   69.87
   2   6   5   10.40    7.97
  -2  -6  -5    9.18    9.39
   2   6   6  343.15  117.03
  -2  -6  -6  354.77  117.23
   2   6   7  115.63   39.16
  -2  -6  -7  107.31   39.64
   2   7   0   89.83   21.83
   2   7   0   23.83   19.63
  -2  -7   0   78.47   22.38
  -2  -7   0   75.86   20.04
  -2  -7   0   29.69   20.44
  -2  -7  -1 1069.98  153.33
   2   7   1 1178.64  376.29
   2   7   1 1128.49  373.28
  -2  -7  -1 1128.21  372.88
   2   7   2  138.17   45.07
   2   7   2  133.52   47.34
  -2  -7  -2  135.13   45.40
  -2  -7  -2  106.81   45.20
   2   7   3  104.86   35.61
   2   7   3  110.82   40.95
  -2  -7  -3   98.78   36.21
  -2  -7  -3   91.33   37.87
   2   7   4  160.51   44.77
   2   7   4   76.93   48.49
  -2  -7  -4  147.24   45.19
  -2  -7  -4   81.95   46.98
   2   7   5   36.59    3.12
  -2  -7  -5   33.97    3.88
   2   7   6   11.19   11.70
  -2  -7  -6    5.32   11.31
   2   8   0 1297.07  430.15
   2   8   0 1279.90  426.64
  -2  -8   0 1438.48  430.38
  -2  -8   0 1136.91  426.16
   2   8   1  217.25   24.29
  -2  -8  -1  197.76   23.88
   2   8   1  195.68   70.22
  -2  -8  -1  191.56   69.36
   2   8   2  787.62  181.54
   2   8   2  678.14  182.52
  -2  -8  -2  519.09  181.37
  -2  -8  -2   72.35  179.00
   2   8   3  115.58   32.21
   2   8   3   69.41   38.00
  -2  -8  -3  121.24   33.24
  -2  -8  -3   -1.49   34.83
   2   8   4   10.95   10.19
  -2  -8  -4   12.85   11.44
   2   8   5  159.81   54.79
  -2  -8  -5  154.50   55.08
   2   9   0   70.95   24.69
   2   9   0   89.54   37.29
  -2  -9   0   80.98   25.84
  -2  -9   0    2.74   23.67
   2   9   1  122.29   34.61
   2   9   1  119.41   44.90
  -2  -9  -1  122.66   35.35
  -2  -9  -1  -10.56   34.94
   2   9   2   -0.67   10.42
   2   9   2   12.32   37.53
  -2  -9  -2   -2.70   13.17
  -2  -9  -2   -2.36   22.90
   2   9   3   61.84   26.55
  -2  -9  -3   76.41   28.45
  -2 -10   0   17.06    8.95
   2  10   0    6.09   14.44
   2  10   0   13.37   36.40
  -2 -10   0   -5.68   23.11
   2  10   1    2.96   12.85
  -2 -10  -1    6.87   12.47
   2  10   2   97.79   41.70
  -2 -10  -2  136.89   43.90
   3 -14   4   39.38   37.78
   3 -14   4   48.23   26.31
  -3  14  -4   44.71   37.75
   3 -14   5   23.93   19.76
   3 -14   5   36.97   23.99
  -3  14  -5   43.89   35.89
   3 -14   6  129.66   61.14
   3 -14   6  127.07   47.91
  -3  14  -6  135.08   56.41
   3 -14   7  261.20   73.35
   3 -14   7  122.50   60.69
  -3  14  -7  184.72   68.53
   3 -14   8  134.01   48.91
   3 -14   8   71.53   35.02
  -3  14  -8   77.60   40.20
   3 -14   9   82.76   43.50
   3 -14   9   68.29   34.68
  -3  14  -9   88.62   48.71
   3 -13   1   -3.59   46.49
   3 -13   1   -4.26   40.74
  -3  13  -1  277.86   53.68
  -3  13  -1  268.90   57.22
   3 -13   2   40.24   34.18
   3 -13   2   54.24   23.37
  -3  13  -2   48.81   34.57
   3 -13   3  126.93   52.91
   3 -13   3  130.85   48.04
  -3  13  -3  152.27   54.27
   3 -13   4  427.41  146.24
   3 -13   4  415.56  142.66
  -3  13  -4  446.75  145.26
   3 -13   5  301.56  104.70
   3 -13   5  298.75  100.17
  -3  13  -5  289.47  103.25
   3 -13   6  116.05   12.54
   3 -13   6  101.69   38.35
  -3  13  -6  101.51   44.90
   3 -13   7  193.50   78.28
   3 -13   7  218.44   73.42
  -3  13  -7  229.55   77.81
   3 -13   8   11.16   24.69
   3 -13   8   11.51   15.89
  -3  13  -8   -2.90   23.80
   3 -13   9   10.53   25.57
   3 -13   9    2.95   16.38
  -3  13  -9   -3.63   26.22
   3 -13  10  855.25   66.96
   3 -13  10  536.87  173.00
  -3  13 -10   -0.50  172.02
   3 -13  11   87.39   17.56
   3 -12   0    1.17   39.67
   3 -12   0   -0.05   35.87
  -3  12   0  224.71   43.98
  -3  12   0  193.83   46.97
   3 -12   1  256.55  109.89
   3 -12   1  302.22  106.90
  -3  12  -1  409.66  109.96
   3 -12   2   91.27   40.23
   3 -12   2  100.22   34.13
  -3  12  -2   78.70   39.02
   3 -12   3   54.07   29.01
   3 -12   3   54.51   23.34
  -3  12  -3   63.38   29.63
   3 -12   4   33.66   23.06
   3 -12   4   27.66   17.02
  -3  12  -4   44.21   24.76
   3 -12   5   12.84   19.37
   3 -12   5    5.82   12.08
  -3  12  -5    8.54   21.71
   3 -12   6   30.35   21.94
   3 -12   6   21.70   15.18
  -3  12  -6   39.88   24.10
   3 -12   7  713.75  234.16
   3 -12   7  671.60  230.50
  -3  12  -7  715.11  231.94
   3 -12   8  464.26  140.97
   3 -12   8  357.50  137.51
  -3  12  -8  449.76  140.00
   3 -12   9 1055.05  316.46
   3 -12   9  791.37  312.08
  -3  12  -9 1069.99  313.69
   3 -12  10   28.33   10.00
   3 -12  10   38.90   20.93
   3 -12  11   -0.16   13.41
   3 -12  11   -0.20   20.22
  -3  12 -11    8.42   26.90
   3 -12  12  101.77   46.90
   3 -11   0  301.06  116.60
   3 -11   0  386.50  114.52
  -3  11   0  312.48  116.04
   3 -11   1   72.59    9.83
   3 -11   1   70.81   28.44
  -3  11  -1   77.81   32.91
   3 -11   2  101.55   41.59
   3 -11   2  114.67   39.49
  -3  11  -2  113.23   42.55
   3 -11   3  624.10  272.37
   3 -11   3  824.66  269.22
  -3  11  -3 1005.09  270.28
   3 -11   4    4.88   15.91
   3 -11   4    6.67   13.75
  -3  11  -4   33.18   20.79
   3 -11   5  727.60  271.63
   3 -11   5  856.87  268.60
  -3  11  -5  841.57  269.28
   3 -11   6  956.45  327.03
   3 -11   6 1029.85  323.43
  -3  11  -6  926.73  323.98
   3 -11   7  180.65   59.62
   3 -11   7  166.13   57.26
  -3  11  -7  154.29   59.71
   3 -11   8 4169.83 1412.33
   3 -11   8 4323.58 1399.64
  -3  11  -8 4197.35 1400.25
   3 -11   9  423.62  126.04
   3 -11   9  334.71  123.73
  -3  11  -9  356.40  125.41
   3 -11  10  112.36   47.02
   3 -11  10  148.18   45.26
  -3  11 -10  111.15   48.43
   3 -11  11  160.80   14.34
   3 -11  11  143.96   48.83
  -3  11 -11   13.32   50.57
   3 -11  12  254.23   63.39
   3 -11  12  178.40   65.67
  -3  11 -12    3.65   64.23
   3 -11  13   17.06   17.98
   3 -10   0    2.14   15.49
   3 -10   0    2.52    8.26
  -3  10   0    5.27   14.68
   3 -10   1   95.13   35.63
   3 -10   1  103.09   33.19
  -3  10  -1   83.67   34.88
   3 -10   2  562.63  190.47
   3 -10   2  618.93  187.89
  -3  10  -2  486.99  188.23
   3 -10   3   27.78   17.21
   3 -10   3   33.88   13.62
  -3  10  -3   35.72   17.14
   3 -10   4   66.92   27.72
   3 -10   4   72.65   24.81
  -3  10  -4   74.88   27.67
   3 -10   5  303.27  102.32
   3 -10   5  285.82  100.38
  -3  10  -5  325.63  101.43
   3 -10   6   63.20   28.45
   3 -10   6   69.57   27.32
  -3  10  -6   90.69   30.83
   3 -10   7  975.91  327.80
   3 -10   7 1020.83  324.37
  -3  10  -7  928.49  324.86
   3 -10   8   22.55   14.42
   3 -10   8   19.94   11.87
  -3  10  -8   15.23   18.89
   3 -10   9  712.93  289.39
   3 -10   9  948.41  286.79
  -3  10  -9  996.82  287.76
   3 -10  10   13.25   12.76
  -3  10 -10    8.60   15.44
   3 -10  11   46.86   21.47
   3 -10  11   60.44   23.61
  -3  10 -11   10.39   25.90
   3 -10  12  354.21  107.01
   3 -10  12  442.98  107.82
  -3  10 -12    8.93  107.57
   3 -10  13   23.40   20.91
   3  -9   0   65.46   26.10
   3  -9   0   75.81   25.28
  -3   9   0   70.69   26.19
   3  -9   1  470.26  101.75
   3  -9   1  272.70  101.73
   3  -9   1  551.02  100.33
   3  -9   1  166.87   99.53
  -3   9  -1  165.70  101.27
  -3   9  -1  558.59  100.94
  -3   9  -1  154.34   99.43
   3  -9   2  122.51   27.82
   3  -9   2   59.28   27.51
   3  -9   2  133.37   26.89
   3  -9   2   52.52   25.94
  -3   9  -2   47.51   28.33
  -3   9  -2  139.14   27.85
  -3   9  -2   43.72   25.72
  -3   9  -3    4.12    4.13
   3  -9   3   17.04    9.52
   3  -9   3    0.77   10.40
   3  -9   3   23.35    7.98
   3  -9   3    5.98    6.16
  -3   9  -3   10.20    9.68
  -3   9  -3    6.61    5.70
   3  -9   4 2001.62  400.95
   3  -9   4  970.76  400.31
   3  -9   4 2280.55  397.13
   3  -9   4  879.61  396.36
  -3   9  -4  725.23  400.12
  -3   9  -4 2156.79  397.47
  -3   9  -4  642.69  396.22
   3  -9   5  586.90  123.84
   3  -9   5  314.88  123.60
   3  -9   5  616.45  122.09
   3  -9   5  205.43  121.36
  -3   9  -5  293.20  123.44
  -3   9  -5  547.80  122.79
  -3   9  -5  271.12  121.38
   3  -9   6  227.93   53.91
   3  -9   6  228.97   52.51
   3  -9   6   73.68   51.74
  -3   9  -6  274.88   54.23
  -3   9  -6  114.42   51.77
   3  -9   7   68.26   26.05
   3  -9   7   68.46   25.13
  -3   9  -7   76.48   29.70
   3  -9   8  415.73  148.47
   3  -9   8  506.06  146.69
  -3   9  -8  378.84  146.95
   3  -9   9  881.95  338.25
   3  -9   9  956.70  334.78
  -3   9  -9 1301.05  335.91
   3  -9  10   10.42   13.24
   3  -9  10   18.94   11.87
  -3   9 -10   12.33   17.14
   3  -9  11  146.03   48.69
   3  -9  11  142.67   48.52
  -3   9 -11  106.50   52.24
   3  -9  12  459.87   57.88
   3  -9  12  445.96  153.17
   3  -9  13   73.92    7.51
   3  -9  14  445.04  152.28
   3  -8   0   81.15   23.14
   3  -8   0   42.51   23.75
   3  -8   0   90.29   22.53
   3  -8   0   48.70   22.70
  -3   8   0   44.72   23.60
  -3   8   0  105.95   23.33
  -3   8   0   46.39   22.13
   3  -8   1   18.51    8.79
   3  -8   1   12.67    9.77
   3  -8   1   30.10    8.49
   3  -8   1   15.25    8.30
  -3   8  -1    9.38   10.02
  -3   8  -1   25.62    9.62
  -3   8  -1    8.76    7.30
   3  -8   2  428.83  118.99
   3  -8   2  328.44  118.93
   3  -8   2  617.94  117.67
   3  -8   2  275.68  117.12
  -3   8  -2  245.82  118.78
  -3   8  -2  492.03  117.76
  -3   8  -2  244.88  117.01
   3  -8   3 1975.08  564.84
   3  -8   3 1559.68  564.79
   3  -8   3 2494.40  559.78
   3  -8   3 1565.71  559.44
  -3   8  -3 1163.61  564.54
  -3   8  -3 2278.22  559.91
  -3   8  -3 1344.17  559.32
   3  -8   4   15.27    9.16
   3  -8   4    6.57    7.66
   3  -8   4   18.44    7.18
   3  -8   4    6.65    6.63
  -3   8  -4   10.63    8.02
  -3   8  -4   10.71    8.79
  -3   8  -4    3.85    5.85
   3  -8   5 2525.73  654.33
   3  -8   5 1491.68  653.96
   3  -8   5 3069.49  648.48
   3  -8   5 1352.49  647.99
  -3   8  -5 1244.70  653.86
  -3   8  -5 3173.51  648.77
  -3   8  -5 1760.28  648.01
   3  -8   6  520.85  113.80
   3  -8   6  224.58  113.00
   3  -8   6  465.93  112.08
   3  -8   6  229.89  111.58
  -3   8  -6  251.02  112.93
  -3   8  -6  521.11  112.71
  -3   8  -6  342.31  111.63
   3  -8   7  635.47  124.82
   3  -8   7  296.46  123.76
   3  -8   7  721.91  123.09
   3  -8   7  290.19  122.18
  -3   8  -7  195.08  123.45
  -3   8  -7  754.59  124.13
  -3   8  -7  237.49  122.04
   3  -8   8   51.49   14.95
   3  -8   8   61.35   13.47
   3  -8   8   11.85   11.59
  -3   8  -8   80.96   15.80
  -3   8  -8   12.78   11.89
   3  -8   9   72.00   28.53
   3  -8   9   81.56   28.41
  -3   8  -9   70.78   29.40
  -3   8  -9   86.98   30.48
   3  -8  10    4.33   10.80
   3  -8  10    3.22   11.45
  -3   8 -10    8.34   12.86
  -3   8 -10    8.12   21.55
   3  -8  11  105.14   33.08
   3  -8  11   72.63   33.46
  -3   8 -11   90.52   34.19
  -3   8 -11   85.73   36.67
   3  -8  12  156.49   39.68
   3  -8  12   32.25   39.59
  -3   8 -12  149.17   41.11
  -3   8 -12   77.85   44.70
   3  -8  13    0.42   13.90
  -3   8 -13    8.24   17.80
   3  -8  14   73.00   33.74
  -3   8 -14   91.12   43.22
   3  -7   0    4.32    5.32
   3  -7   0    0.74    7.07
   3  -7   0    7.83    4.08
   3  -7   0    2.68    6.52
  -3   7   0    2.69    7.11
  -3   7   0    4.75    5.99
  -3   7   0    2.12    4.19
   3  -7   1  815.04  242.27
   3  -7   1  649.38  242.29
   3  -7   1  889.99  239.71
   3  -7   1  706.03  239.70
  -3   7  -1  557.37  242.22
  -3   7  -1  840.70  239.89
  -3   7  -1  616.81  239.58
   3  -7   2  756.07  219.76
   3  -7   2  637.95  219.83
   3  -7   2  850.01  217.42
   3  -7   2  586.60  217.28
  -3   7  -2  537.11  219.65
  -3   7  -2  801.90  217.60
  -3   7  -2  537.61  217.19
   3  -7   3  148.68   33.88
   3  -7   3   64.96   33.24
   3  -7   3  137.15   32.74
   3  -7   3   88.73   32.43
  -3   7  -3   63.54   33.18
  -3   7  -3  153.29   33.35
  -3   7  -3   67.20   32.28
   3  -7   4 1083.92  315.56
   3  -7   4  846.10  315.49
   3  -7   4 1544.79  312.55
   3  -7   4  769.36  312.16
  -3   7  -4  781.15  315.47
  -3   7  -4 1216.31  312.60
  -3   7  -4  669.05  312.06
   3  -7   5   81.31   20.52
   3  -7   5   41.24   19.12
   3  -7   5   80.89   18.79
   3  -7   5   46.88   18.30
  -3   7  -5   31.94   18.69
  -3   7  -5   70.79   19.50
  -3   7  -5   42.75   18.19
   3  -7   6 2957.89  730.17
   3  -7   6 1737.05  729.76
   3  -7   6 3349.70  723.61
   3  -7   6 2048.17  723.23
  -3   7  -6 1467.48  729.61
  -3   7  -6 2669.77  730.22
  -3   7  -6 2789.88  723.67
  -3   7  -6 1683.02  723.11
   3  -7   7  254.00   57.73
   3  -7   7  280.58   56.24
   3  -7   7   94.95   55.51
  -3   7  -7  101.75   56.43
  -3   7  -7  214.56   57.69
  -3   7  -7  328.52   57.57
  -3   7  -7  114.48   55.47
   3  -7   8   27.01   12.40
   3  -7   8    8.37    8.37
   3  -7   8   37.83    9.84
   3  -7   8   13.43    8.72
  -3   7  -8    4.85    7.74
  -3   7  -8   32.15   13.31
  -3   7  -8   11.74    7.68
   3  -7   9  420.21  109.93
   3  -7   9  646.73  109.11
   3  -7   9  178.01  108.02
  -3   7  -9  393.10  110.11
  -3   7  -9  417.03  109.20
  -3   7  -9  162.55  107.74
   3  -7  10  391.83  149.42
   3  -7  10  582.59  148.15
  -3   7 -10  371.95  149.55
  -3   7 -10  423.45  149.10
   3  -7  11  163.43   54.13
   3  -7  11  148.40   55.15
  -3   7 -11  157.07   54.67
  -3   7 -11  149.51   56.57
   3  -7  12  135.24   34.64
   3  -7  12    1.56   33.18
  -3   7 -12  133.44   35.67
   3  -7  13  228.57   81.77
  -3   7 -13  247.01   82.55
   3  -7  14  167.95   53.39
  -3   7 -14  119.11   54.72
   3  -6   0  514.17  189.76
   3  -6   0  474.83  189.92
   3  -6   0  593.60  187.78
   3  -6   0  655.83  187.95
  -3   6   0  496.92  189.91
  -3   6   0  567.22  187.86
  -3   6   0  617.42  187.84
   3  -6   1 1503.98  502.27
   3  -6   1 1411.70  502.34
   3  -6   1 1633.49  497.66
   3  -6   1 1475.70  497.70
  -3   6  -1 1475.29  502.33
  -3   6  -1 1606.74  497.74
  -3   6  -1 1427.63  497.62
   3  -6   2   31.51   13.00
   3  -6   2   25.15   13.33
   3  -6   2   39.63   11.69
   3  -6   2   34.33   12.12
  -3   6  -2   23.19   12.61
  -3   6  -2   45.67   12.36
  -3   6  -2   32.46   11.82
   3  -6   3   48.87   15.87
   3  -6   3   37.93   15.62
   3  -6   3   43.25   14.03
   3  -6   3   34.52   14.31
  -3   6  -3   53.04   16.05
  -3   6  -3   45.45   14.67
  -3   6  -3   33.77   14.18
   3  -6   4  129.23   37.51
   3  -6   4   82.69   36.84
   3  -6   4  168.52   36.31
   3  -6   4   92.23   36.09
  -3   6  -4   70.55   36.71
  -3   6  -4  119.54   37.58
  -3   6  -4  140.74   36.59
  -3   6  -4   92.69   36.02
   3  -6   5 1627.60  482.02
   3  -6   5 1205.99  481.82
   3  -6   5 2294.31  477.63
   3  -6   5 1283.12  477.31
  -3   6  -5 1002.16  481.67
  -3   6  -5 1493.72  481.97
  -3   6  -5 2146.58  477.77
  -3   6  -5 1149.04  477.23
   3  -6   6  471.40  120.83
   3  -6   6  248.93  120.27
   3  -6   6  497.12  119.20
   3  -6   6  312.79  118.95
  -3   6  -6  225.47  120.16
  -3   6  -6  577.03  121.12
  -3   6  -6  484.84  119.51
  -3   6  -6  290.66  118.82
   3  -6   7  347.94   79.46
   3  -6   7  119.35   78.73
   3  -6   7  371.87   78.15
   3  -6   7  184.05   77.73
  -3   6  -7  115.30   78.66
  -3   6  -7  377.79   79.77
  -3   6  -7  488.17   79.22
  -3   6  -7  184.33   77.66
   3  -6   8   31.99    1.60
  -3   6  -8   28.81    2.24
   3  -6   8   70.33   19.82
   3  -6   8   94.40   19.31
   3  -6   8   52.11   18.78
  -3   6  -8   62.05   19.93
  -3   6  -8   38.70   18.05
   3  -6   9   63.49   18.55
   3  -6   9   30.53   17.28
  -3   6  -9   61.05   19.49
  -3   6  -9   81.10   20.73
  -3   6  -9   30.89   16.80
   3  -6  10  106.91    8.02
   3  -6  10   82.37   28.20
   3  -6  10   44.94   28.44
  -3   6 -10  117.97   30.10
  -3   6 -10   98.22   33.01
  -3   6 -10   52.19   27.68
   3  -6  11  203.10   75.16
  -3   6 -11  239.69   75.72
   3  -6  12    9.96   11.96
  -3   6 -12   12.21   14.09
   3  -6  13  647.09  218.22
  -3   6 -13  653.77  218.53
   3  -6  14    2.34   16.21
  -3   6 -14   19.13   18.41
   3  -5   0 2230.58  880.64
   3  -5   0 3372.70  872.98
   3  -5   0 2410.93  872.80
  -3   5   0 2160.60  880.65
  -3   5   0 2691.91  872.89
  -3   5   0 2836.10  872.85
   3  -5   1  379.10  122.93
   3  -5   1  261.67  123.03
   3  -5   1  394.09  121.41
   3  -5   1  404.91  121.61
  -3   5  -1  315.34  122.87
  -3   5  -1  390.18  121.47
  -3   5  -1  380.82  121.47
   3  -5   2 5764.41 1834.88
   3  -5   2 5354.37 1835.01
   3  -5   2 5310.68 1819.04
  -3   5  -2 5513.10 1834.98
  -3   5  -2 5440.50 1819.05
  -3   5  -2 5667.05 1819.00
   3  -5   3   26.63   11.35
   3  -5   3   23.69   10.34
   3  -5   3   26.48    9.28
   3  -5   3   27.47    9.86
  -3   5  -3   22.40    9.92
  -3   5  -3   24.47   11.31
  -3   5  -3   27.11    9.72
  -3   5  -3   27.67    9.44
   3  -5   4 1004.41  318.82
   3  -5   4  861.08  318.74
   3  -5   4 1137.19  315.62
   3  -5   4  977.99  315.65
  -3   5  -4  765.47  318.56
  -3   5  -4  910.57  318.86
  -3   5  -4 1029.17  315.71
  -3   5  -4  946.01  315.58
  -3   5  -5  185.28   40.04
   3  -5   5  319.24  104.46
   3  -5   5  205.07  104.18
   3  -5   5  350.35  103.12
   3  -5   5  254.03  103.00
  -3   5  -5  762.01  105.18
  -3   5  -5  364.12  103.28
  -3   5  -5  262.58  102.93
   3  -5   6   24.44    8.44
   3  -5   6   11.05    8.19
   3  -5   6   32.80    8.47
   3  -5   6   20.52    8.48
  -3   5  -6   12.47    8.34
  -3   5  -6   22.96    8.96
  -3   5  -6   17.39    8.53
  -3   5  -6   15.77    7.82
   3  -5   7  205.52   60.93
   3  -5   7  131.40   60.78
   3  -5   7  294.70   60.18
   3  -5   7  165.10   59.89
  -3   5  -7  134.46   60.62
  -3   5  -7  188.35   60.99
  -3   5  -7  246.19   60.81
  -3   5  -7  163.12   59.74
   3  -5   8   17.31    6.72
   3  -5   8    4.44    6.21
   3  -5   8   15.19    7.08
  -3   5  -8    5.56    6.51
  -3   5  -8   10.69    6.88
  -3   5  -8   14.21    9.02
  -3   5  -8   13.04    6.85
   3  -5   9   22.10   10.00
  -3   5  -9   22.51   10.26
  -3   5  -9   25.15   13.33
   3  -5  10  433.38  149.85
  -3   5 -10  462.92  150.05
   3  -5  11  124.94   44.19
  -3   5 -11  129.97   44.35
   3  -5  12  681.00   92.12
  -3   5 -12  691.61  229.58
   3  -5  13  241.59   82.55
  -3   5 -13  240.88   82.78
   3  -4   0  557.92  191.44
   3  -4   0  498.06  191.54
   3  -4   0  744.82  189.49
   3  -4   0  504.10  189.37
  -3   4   0  418.62  191.38
  -3   4   0  644.85  189.47
  -3   4   0  583.05  189.39
   3  -4   1 5003.80 1557.88
   3  -4   1 4400.01 1558.01
   3  -4   1 5378.08 1544.42
  -3   4  -1 3628.56 1557.91
  -3   4  -1 5244.58 1544.43
  -3   4  -1 4165.01 1544.32
   3  -4   2  333.15  127.35
   3  -4   2  383.13  127.55
   3  -4   2  445.98  125.89
   3  -4   2  405.02  125.77
  -3   4  -2  334.27  127.38
  -3   4  -2  334.35  127.41
  -3   4  -2  402.23  125.84
  -3   4  -2  368.16  125.77
   3  -4   3 1719.36  672.65
   3  -4   3 2208.37  666.73
   3  -4   3 2728.56  666.83
  -3   4  -3 1380.57  672.56
  -3   4  -3 1951.37  672.85
  -3   4  -3 2165.20  666.77
  -3   4  -3 2178.20  666.71
   3  -4   4 1738.26  212.63
   3  -4   4 1321.85  516.56
   3  -4   4 1532.71  511.89
   3  -4   4 1645.81  511.94
  -3   4  -4 1494.45  516.53
  -3   4  -4 1594.98  516.93
  -3   4  -4 1454.47  511.94
  -3   4  -4 1697.24  511.90
  -3   4  -5    5.51    2.92
   3  -4   5    3.62    5.07
   3  -4   5    2.31    4.23
   3  -4   5    2.59    3.55
   3  -4   5    0.90    4.00
  -3   4  -5    2.00    3.27
  -3   4  -5    2.97    4.10
   3  -4   6   17.13    0.95
   3  -4   6   27.89   10.53
   3  -4   6   29.30    9.55
   3  -4   6   25.56    9.51
  -3   4  -6   17.71    9.99
  -3   4  -6   26.68   10.56
  -3   4  -6   29.68   10.24
  -3   4  -6   32.38    9.43
   3  -4   7  921.86  246.67
   3  -4   7  581.02  246.48
   3  -4   7  960.68  244.13
   3  -4   7  630.85  243.90
  -3   4  -7  627.41  246.43
  -3   4  -7 1037.05  246.81
  -3   4  -7  603.72  243.87
  -3   4  -8    0.65    2.74
   3  -4   8    2.75    5.81
   3  -4   8   -0.16    3.59
   3  -4   8    2.37    4.44
  -3   4  -8   -0.55    5.14
  -3   4  -8    1.08    4.29
   3  -4   9   13.86    8.13
  -3   4  -9   11.99    8.02
   3  -4  10   94.46   36.39
  -3   4 -10  113.39   36.78
   3  -4  11 1017.96  339.30
  -3   4 -11 1015.09  339.35
   3  -4  12  227.18   78.24
  -3   4 -12  233.00   78.51
   3  -4  13  418.09  137.00
  -3   4 -13  395.91  137.10
   3  -3   0  930.05  274.48
   3  -3   0  788.24  274.39
   3  -3   0  834.12  271.70
   3  -3   0  886.55  271.71
  -3   3   0  646.44  274.28
  -3   3   0  847.51  274.47
  -3   3   0  843.92  271.74
  -3   3   0  830.40  271.66
   3  -3   1  646.24  223.16
   3  -3   1  550.06  223.11
   3  -3   1  690.44  220.92
   3  -3   1  799.03  220.94
  -3   3  -1  560.69  223.05
  -3   3  -1  638.62  223.25
  -3   3  -1  769.72  220.98
  -3   3  -1  673.57  220.88
  -3   3  -2  703.15  140.47
   3  -3   2 1314.12  341.75
   3  -3   2  850.52  341.46
   3  -3   2 1138.32  338.27
  -3   3  -2 1252.93  341.83
  -3   3  -2 1240.39  338.34
  -3   3  -2  974.28  338.23
   3  -3   3  130.09   43.61
   3  -3   3  125.57   43.62
   3  -3   3  121.89   42.73
   3  -3   3  124.50   42.73
  -3   3  -3  131.58   43.49
  -3   3  -3  159.43   43.77
  -3   3  -3  150.63   42.85
  -3   3  -3  108.28   42.66
   3  -3   4   11.96    0.74
   3  -3   4   13.58    5.96
   3  -3   4   11.92    4.70
   3  -3   4    6.46    4.28
  -3   3  -4   17.89    5.55
  -3   3  -4   15.81    6.58
  -3   3  -4    7.74    4.28
   3  -3   5    2.79    4.64
   3  -3   5    1.43    4.25
   3  -3   5    3.56    2.74
   3  -3   5    1.89    2.18
  -3   3  -5    2.92    3.92
  -3   3  -5    4.57    5.57
  -3   3  -5    4.66    3.75
  -3   3  -5    3.64    2.42
   3  -3   6  146.55    8.57
  -3   3  -6  145.79    7.56
   3  -3   6   66.16   30.86
   3  -3   6   96.73   30.09
   3  -3   6   72.66   29.97
  -3   3  -6   67.15   30.76
  -3   3  -6   96.60   30.44
  -3   3  -6   90.26   30.06
   3  -3   7   30.95    1.20
  -3   3  -7   38.00    2.00
   3  -3   7   51.23   15.92
  -3   3  -7   55.60   16.41
   3  -3   8  397.23   89.39
   3  -3   8  128.37   89.05
  -3   3  -8  151.35   88.97
  -3   3  -8  423.18   89.68
   3  -3   9   27.45   11.25
  -3   3  -9   24.45   11.19
   3  -3  10 1008.48  341.08
  -3   3 -10 1041.64  341.18
   3  -3  11  210.02   63.71
  -3   3 -11  163.56   63.65
   3  -3  12 1093.61  379.62
  -3   3 -12 1179.60  379.68
   3  -3  13   34.26   14.01
  -3   3 -13   30.36   16.41
   3  -2   0   73.77   23.57
   3  -2   0   68.56   23.54
   3  -2   0   69.70   23.01
   3  -2   0   71.40   23.00
  -3   2   0   66.73   23.46
  -3   2   0   70.13   23.63
  -3   2   0   68.18   23.03
  -3   2   0   65.07   23.02
   3  -2   1  230.36   79.75
   3  -2   1  231.19   78.73
   3  -2   1  247.86   78.73
  -3   2  -1  213.54   79.70
  -3   2  -1  236.90   79.88
  -3   2  -1  229.19   78.74
  -3   2  -1  278.30   78.77
   3  -2   2  359.68  128.78
   3  -2   2  400.18  128.91
   3  -2   2  324.46  127.35
   3  -2   2  476.62  127.43
  -3   2  -2  357.76  128.81
  -3   2  -2  350.74  128.86
  -3   2  -2  460.86  127.45
  -3   2  -2  385.97  127.38
  -3   2  -3  348.15   65.48
   3  -2   3  427.98  164.80
   3  -2   3  562.44  164.90
   3  -2   3  528.69  163.08
  -3   2  -3  624.52  164.84
  -3   2  -3  522.14  163.11
  -3   2  -3  416.94  163.04
   3  -2   4 1155.58  318.13
   3  -2   4  939.80  318.17
   3  -2   4  911.16  315.01
  -3   2  -4  882.59  318.05
  -3   2  -4  947.37  318.17
  -3   2  -4  915.79  315.04
  -3   2  -4  914.25  315.02
  -3   2  -5  707.69   86.75
   3  -2   5  639.05  214.01
   3  -2   5  697.98  214.24
   3  -2   5  571.32  211.74
  -3   2  -5  612.60  214.08
   3  -2   6  115.53   38.25
   3  -2   6  118.84   38.54
  -3   2  -6  107.05   38.31
  -3   2  -6  110.67   38.36
   3  -2   7  223.96   64.46
   3  -2   7  158.92   64.67
  -3   2  -7  141.90   64.49
  -3   2  -7  218.89   64.58
   3  -2   8 1174.14  404.66
  -3   2  -8 1266.55  404.80
   3  -2   9 1085.87  162.64
  -3   2  -9 1302.02  395.53
   3  -2  10    1.47    7.66
  -3   2 -10    4.80    7.79
   3  -2  11  151.73   51.87
  -3   2 -11  151.72   51.92
   3  -2  12   16.77    9.29
  -3   2 -12   15.87    9.25
   3  -1   0 1044.68  356.10
   3  -1   0 1119.69  352.79
   3  -1   0 1249.62  352.81
  -3   1   0  988.02  356.00
  -3   1   0 1194.42  356.15
  -3   1   0  997.36  352.78
  -3   1   0  936.90  352.77
   3  -1   1 1757.54  562.40
   3  -1   1 1828.18  562.48
   3  -1   1 1710.17  557.39
   3  -1   1 1612.21  557.37
  -3   1  -1 1734.85  562.38
  -3   1  -1 1698.66  562.49
  -3   1  -1 1590.85  557.38
  -3   1  -1 1638.31  557.38
   3  -1   2  569.14  177.26
   3  -1   2  590.20  177.37
   3  -1   2  557.29  175.42
   3  -1   2  437.07  175.37
  -3   1  -2  583.03  177.25
  -3   1  -2  593.40  177.38
  -3   1  -2  483.70  175.40
  -3   1  -2  495.53  175.40
   3  -1   3   31.19   10.57
   3  -1   3   27.59   10.83
   3  -1   3   30.65    9.85
  -3   1  -3   30.37   10.58
  -3   1  -3   27.24   10.83
  -3   1  -3   27.35    9.88
   3  -1   4   68.45   24.01
   3  -1   4   68.41   24.24
  -3   1  -4   73.04   24.05
  -3   1  -4   74.00   24.24
  -3   1  -4   66.13   23.23
   3  -1   5  108.06   40.30
   3  -1   5  132.26   40.55
  -3   1  -5  120.44   40.43
  -3   1  -5  118.19   40.49
   3  -1   6   82.41   27.48
   3  -1   6   77.37   27.85
  -3   1  -6   77.58   27.65
  -3   1  -6   82.35   27.61
   3  -1   7   49.76   13.94
   3  -1   7   26.78   14.25
  -3   1  -7   29.31   14.19
  -3   1  -7   40.99   14.01
   3  -1   8  840.48  274.21
  -3   1  -8  801.89  274.28
   3  -1   9   21.07    9.09
  -3   1  -9   18.02    9.69
   3  -1  10  777.53  262.07
  -3   1 -10  794.91  262.21
   3  -1  11   40.86   15.92
  -3   1 -11   32.52   15.70
   3  -1  12   27.55   13.28
  -3   1 -12   31.34   13.66
   3   0   0  963.66  296.51
   3   0   0  825.20  296.54
   3   0   0  927.22  293.75
   3   0   0  864.83  293.74
  -3   0   0  906.90  296.49
  -3   0   0  805.43  296.59
  -3   0   0  899.91  293.74
  -3   0   0  903.04  293.76
   3   0   1   85.36   27.83
   3   0   1   82.16   27.97
   3   0   1   75.61   27.29
  -3   0  -1   81.13   27.83
  -3   0  -1   82.38   27.96
  -3   0  -1   85.67   27.30
  -3   0  -1   82.13   27.38
   3   0   2   81.64   24.99
   3   0   2   82.83   25.18
   3   0   2   74.03   24.43
   3   0   2   65.46   24.36
  -3   0  -2   80.00   25.01
  -3   0  -2   69.43   25.10
  -3   0  -2   60.88   24.39
  -3   0  -2   75.20   24.50
   3   0   3  589.32  182.56
   3   0   3  606.07  182.71
   3   0   3  502.24  180.61
   3   0   3  541.00  180.59
  -3   0  -3  595.69  182.58
  -3   0  -3  515.88  182.64
  -3   0  -3  483.05  180.59
  -3   0  -3  535.07  180.66
   3   0   4   52.92    3.50
   3   0   4   53.44   19.03
  -3   0  -4   52.12   18.72
  -3   0  -4   57.16   18.90
  -3   0  -5 2210.05  322.86
   3   0   5 2311.64  775.42
   3   0   5 2470.68  775.73
  -3   0  -5 2367.70  775.54
   3   0   6   11.83    0.89
  -3   0  -6   11.02    1.06
   3   0   6    9.67    6.81
  -3   0  -6    7.86    6.04
   3   0   7  760.79  257.88
  -3   0  -7  789.28  258.03
   3   0   8  609.04   83.34
  -3   0  -8  626.50   82.94
   3   0   9 3768.17 1182.58
  -3   0  -9 3318.19 1182.59
   3   0  10   59.40   22.13
  -3   0 -10   62.74   22.53
   3   0  11  582.52  194.67
  -3   0 -11  581.27  194.79
   3   1   0  433.29   73.12
   3   1   0  461.72  181.57
   3   1   0  577.47  179.78
   3   1   0  587.55  179.78
  -3  -1   0  572.63  181.64
  -3  -1   0  589.30  179.77
  -3  -1   0  625.16  179.82
   3   1   1  147.28   51.89
   3   1   1  152.21   51.92
   3   1   1  170.30   51.17
   3   1   1  141.93   51.15
  -3  -1  -1  174.42   52.05
  -3  -1  -1  151.05   51.15
  -3  -1  -1  150.08   51.23
  -3  -1  -2 1534.57  216.79
   3   1   2 1652.75  524.09
   3   1   2 1509.94  524.13
   3   1   2 1664.21  519.38
   3   1   2 1528.04  519.32
  -3  -1  -2 1530.52  524.05
  -3  -1  -2 1606.41  519.33
  -3  -1  -2 1603.48  519.42
   3   1   3    2.18    3.06
   3   1   3    2.65    3.44
   3   1   3    2.79    2.69
   3   1   3    2.27    2.18
  -3  -1  -3    2.40    3.31
  -3  -1  -3    1.63    3.21
  -3  -1  -3    2.54    2.35
  -3  -1  -3    4.47    4.97
   3   1   4  209.64   69.75
   3   1   4  204.21   70.00
  -3  -1  -4  208.45   69.90
  -3  -1  -4  208.15   69.87
   3   1   5  995.44  328.70
   3   1   5  985.54  328.97
  -3  -1  -5  999.61  328.86
  -3  -1  -5  964.54  328.82
   3   1   6  479.15   68.16
  -3  -1  -6  541.30   68.88
   3   1   6  533.59  174.04
  -3  -1  -6  517.24  174.16
   3   1   7   73.88   25.28
  -3  -1  -7   70.09   25.52
   3   1   8 1152.19  398.38
  -3  -1  -8 1248.20  398.54
   3   1   9    0.33    6.77
  -3  -1  -9    2.98    7.30
   3   1  10  476.64  158.76
  -3  -1 -10  470.80  158.83
   3   1  11   71.42    5.65
  -3  -1 -11   28.75   19.13
   3   2   0  341.59  120.77
   3   2   0  353.54  120.86
   3   2   0  373.81  119.53
   3   2   0  372.36  119.51
  -3  -2   0  353.89  120.89
  -3  -2   0  335.26  119.46
  -3  -2   0  442.70  119.66
   3   2   1    8.04    3.02
   3   2   1    0.05    2.92
   3   2   1    3.24    4.44
   3   2   1    1.80    3.20
  -3  -2  -1    1.03    3.44
  -3  -2  -1    2.46    3.11
  -3  -2  -1    0.63    4.80
   3   2   2   39.20    0.85
  -3  -2  -2   40.68    1.00
   3   2   2   39.92   13.87
   3   2   2   36.44   13.30
   3   2   2   41.40   13.31
  -3  -2  -2   34.82   13.21
  -3  -2  -2   35.85   14.10
   3   2   3  231.18   73.85
   3   2   3  222.68   74.07
   3   2   3  216.10   72.95
   3   2   3  163.71   72.74
  -3  -2  -3  277.76   74.06
  -3  -2  -3  209.86   73.07
   3   2   4   11.68    5.81
   3   2   4   12.35    6.48
  -3  -2  -4   14.87    6.25
  -3  -2  -4   12.17    5.47
   3   2   5  269.02   89.99
   3   2   5  263.72   90.54
  -3  -2  -5  270.60   90.14
   3   2   6  421.98  140.99
  -3  -2  -6  420.86  141.15
  -3  -2  -7 3068.15  412.03
   3   2   7 2890.29  988.27
   3   2   8   76.41   28.49
  -3  -2  -8   86.17   28.92
   3   2   9    5.43    7.99
  -3  -2  -9    8.23    8.68
  -3  -2 -10   22.74    3.64
   3   2  10   20.26   11.81
  -3  -3   0  110.07   13.17
   3   3   0  135.90   42.13
   3   3   0  112.97   42.23
   3   3   0  124.56   41.79
   3   3   0  130.03   41.56
  -3  -3   0  117.15   41.50
  -3  -3   0  145.39   41.93
   3   3   1  277.84   32.80
   3   3   1  261.61   88.38
   3   3   1  227.48   87.35
   3   3   1  297.31   87.41
  -3  -3  -1  280.76   88.50
  -3  -3  -1  267.57   87.35
  -3  -3  -1  212.07   87.42
   3   3   2 2525.34  814.46
   3   3   2 2572.95  814.67
   3   3   2 2151.12  807.29
  -3  -3  -2 2479.64  814.57
  -3  -3  -2 2842.20  807.35
  -3  -3  -2 1848.17  807.34
   3   3   3  417.54  144.74
   3   3   3  474.02  145.16
   3   3   3  416.66  143.12
   3   3   3  439.88  143.20
  -3  -3  -3  452.59  144.91
  -3  -3  -3  412.73  143.26
   3   3   4  261.67   77.99
   3   3   4  242.75   78.59
   3   3   4  252.87   76.95
   3   3   4  198.86   76.76
  -3  -3  -4  259.16   78.17
  -3  -3  -4  238.28   76.86
  -3  -3  -4  186.72   76.79
   3   3   5  387.63  131.65
  -3  -3  -5  400.98  131.80
   3   3   6 6580.02 2288.65
  -3  -3  -6 7250.84 2288.82
   3   3   7    0.24    5.69
  -3  -3  -7    2.30    7.16
   3   3   8  145.40   50.10
  -3  -3  -8  146.57   50.35
   3   3   9  298.71   94.06
  -3  -3  -9  253.80   94.11
   3   4   0  206.47   70.70
   3   4   0  171.29   69.76
  -3  -4   0  217.63   70.84
  -3  -4   0  233.29   69.83
  -3  -4   0  225.15   70.00
   3   4   1   87.71   24.21
   3   4   1   43.07   24.49
   3   4   1   69.23   24.22
  -3  -4  -1   81.85   24.39
  -3  -4  -1   81.24   24.00
  -3  -4  -1   32.52   23.92
   3   4   2  183.76   21.74
   3   4   2  185.21   60.46
  -3  -4  -2  184.34   61.13
  -3  -4  -2  203.02   60.33
  -3  -4  -2  139.20   60.42
   3   4   3  800.07  267.46
   3   4   3  674.64  264.77
  -3  -4  -3  775.93  267.61
  -3  -4  -3 1028.05  265.15
   3   4   4   30.07    9.06
   3   4   4   11.13    7.92
  -3  -4  -4   24.15    9.82
  -3  -4  -4    8.57    8.38
   3   4   5 2612.27  893.68
  -3  -4  -5 2779.11  893.84
   3   4   6   96.61   31.48
  -3  -4  -6   82.95   31.86
   3   4   7  358.95  127.56
  -3  -4  -7  405.82  127.88
   3   4   8   19.87    2.26
  -3  -4  -8   18.52    9.77
   3   5   0  250.24   75.76
   3   5   0  168.98   76.08
   3   5   0  214.37   74.89
   3   5   0  254.97   75.15
  -3  -5   0  242.32   75.88
  -3  -5   0  210.75   74.74
   3   5   1  235.06   73.27
   3   5   1  213.47   73.80
   3   5   1  140.88   72.14
   3   5   1  218.65   72.70
  -3  -5  -1  242.69   73.46
  -3  -5  -1  300.66   72.77
  -3  -5  -1  208.13   72.63
   3   5   2  704.67  213.27
   3   5   2  515.01  211.06
   3   5   2  769.79  211.53
  -3  -5  -2  747.17  213.42
  -3  -5  -2  660.02  211.23
  -3  -5  -2  453.80  211.19
   3   5   3 1224.79  255.37
   3   5   3  816.83  253.01
   3   5   3  494.77  252.39
  -3  -5  -3  874.44  255.32
  -3  -5  -3  816.45  252.93
  -3  -5  -3  418.65  252.36
   3   5   4 1647.95  535.39
  -3  -5  -4 1558.11  535.52
   3   5   5   48.32   18.07
  -3  -5  -5   49.22   18.61
   3   5   6   13.41    7.94
  -3  -5  -6   11.75    9.42
   3   5   7   66.76   25.03
  -3  -5  -7   71.08   25.07
   3   6   0  672.88  171.34
   3   6   0  272.50  169.06
   3   6   0  601.00  169.89
  -3  -6   0  576.93  171.43
  -3  -6   0  587.05  169.53
   3   6   1 1224.91  376.24
   3   6   1  645.41  372.45
   3   6   1 1330.22  373.16
  -3  -6  -1 1238.12  376.35
  -3  -6  -1 1456.49  373.06
   3   6   2   14.21    8.74
   3   6   2   14.00   15.06
  -3  -6  -2   16.56   10.81
  -3  -6  -2    2.78   12.01
   3   6   3 4068.99 1335.69
  -3  -6  -3 4060.85 1335.87
  -3  -6  -3 3860.25 1324.85
   3   6   4   85.26   28.45
  -3  -6  -4   72.60   28.85
   3   6   5  147.23   55.42
  -3  -6  -5  181.99   55.84
   3   6   6    4.25    6.98
  -3  -6  -6    3.52    9.09
   3   7   0 1414.48  221.98
   3   7   0 1744.21  534.31
  -3  -7   0 1622.25  538.77
  -3  -7   0 1755.86  533.90
   3   7   1    2.00    9.72
   3   7   1    9.82   15.65
  -3  -7  -1    2.02   11.12
  -3  -7  -1   11.23   11.82
   3   7   2  988.10  347.00
   3   7   2 1210.60  345.06
  -3  -7  -2  995.94  347.17
  -3  -7  -2 1044.34  344.38
   3   7   3  234.62   72.04
   3   7   3  124.51   72.91
  -3  -7  -3  234.39   72.50
   3   7   4  839.35  294.05
  -3  -7  -4  932.92  294.34
   3   7   5   13.72   12.13
  -3  -7  -5   13.57   11.99
   3   8   0  374.65  142.40
   3   8   0  462.95  142.98
  -3  -8   0  419.77  142.48
  -3  -8   0  464.91  141.54
  -3  -8  -1  288.58   29.39
   3   8   1  299.22   80.94
   3   8   1  323.43   84.96
  -3  -8  -1    1.77   79.86
   3   8   2   46.87   16.44
   3   8   2   21.37   29.57
  -3  -8  -2   51.66   18.22
  -3  -8  -2    8.13   25.50
   3   8   3  115.37   39.54
  -3  -8  -3  107.32   40.11
   3   8   4  111.92   38.80
  -3  -8  -4  101.36   39.58
   3   9   0 1825.01  510.74
   3   9   0 2520.65  508.68
  -3  -9   0 1749.01  510.79
  -3  -9   0   13.15  505.11
   3   9   1    0.94   10.72
  -3  -9  -1    0.86   13.37
  -3  -9  -1    0.49   18.51
   3   9   2  216.33   82.74
  -3  -9  -2  273.68   83.79
   3  10   0    3.28    8.60
  -3 -10   0    0.19    7.55
   4 -14   3   31.62   25.65
  -4  14  -3   71.79   42.70
   4 -14   4   13.25   41.93
   4 -14   4   30.32   22.53
  -4  14  -4   50.87   38.63
   4 -14   5  625.35  191.99
   4 -14   5  489.72  184.98
  -4  14  -5  611.81  188.76
   4 -14   6  173.97   25.56
   4 -14   6  212.93   70.86
  -4  14  -6  198.74   75.92
   4 -14   7    8.82   16.52
   4 -14   7   14.06   22.11
  -4  14  -7   27.47   34.12
   4 -14   8  369.92  134.45
   4 -14   8  391.31  129.38
  -4  14  -8  375.42  131.46
   4 -14   9    8.16   34.48
   4 -13   0    3.85   23.79
  -4  13   0   32.31   38.19
   4 -13   1    5.34  290.82
   4 -13   1 1334.24  289.03
  -4  13  -1 1019.89  290.46
   4 -13   2   -6.09   42.64
   4 -13   2  135.18   36.09
  -4  13  -2  106.43   42.43
   4 -13   3  210.15   96.25
   4 -13   3  298.61   91.31
  -4  13  -3  271.04   94.06
   4 -13   4  143.09   45.12
   4 -13   4   75.49   38.94
  -4  13  -4  111.12   40.25
   4 -13   5   90.28   41.31
   4 -13   5  105.35   35.28
  -4  13  -5   77.07   40.96
   4 -13   6   57.68   32.00
   4 -13   6   55.07   23.43
  -4  13  -6   46.34   31.96
   4 -13   7  136.50   53.43
   4 -13   7  137.06   47.86
  -4  13  -7  130.26   53.22
   4 -13   8   96.13   45.28
   4 -13   8   96.24   39.23
  -4  13  -8  136.88   47.59
   4 -13   9   12.34   25.29
   4 -13   9    8.67   16.71
  -4  13  -9    9.58   31.18
   4 -13  10   92.51   37.11
   4 -13  10   50.52   26.36
  -4  13 -10    8.84   29.44
   4 -13  11  110.01   51.06
   4 -12   0   11.47  158.82
   4 -12   0  646.87  157.94
  -4  12   0  672.59  160.34
   4 -12   1   19.24   25.48
   4 -12   1   13.29   16.78
  -4  12  -1   24.74   25.59
   4 -12   2 1919.32  716.06
   4 -12   2 2131.62  708.51
  -4  12  -2 2395.72  709.49
   4 -12   3   35.24   21.63
   4 -12   3   16.19   16.19
  -4  12  -3   21.85   23.85
   4 -12   4   18.28   20.26
   4 -12   4   18.04   15.38
  -4  12  -4    6.01   22.92
   4 -12   5  848.66  321.55
   4 -12   5 1051.64  317.79
  -4  12  -5  932.81  318.52
   4 -12   6   13.02   19.59
   4 -12   6   17.54   16.93
  -4  12  -6   17.07   23.76
   4 -12   7  158.20   60.27
   4 -12   7  169.50   57.13
  -4  12  -7  167.02   60.75
   4 -12   8  332.69  107.51
   4 -12   8  294.60  104.51
  -4  12  -8  312.68  107.21
   4 -12   9   81.06   35.71
   4 -12   9   83.80   36.42
  -4  12  -9   82.12   40.64
   4 -12  10    9.30   11.68
   4 -12  10    7.83   19.69
  -4  12 -10   11.23   20.50
   4 -12  11  110.39   39.69
   4 -12  11   90.53   36.06
  -4  12 -11   -2.64   39.05
   4 -12  12 1106.48  148.06
   4 -11   0    5.42   19.63
   4 -11   0    3.44    9.63
  -4  11   0    5.54   16.33
   4 -11   1  845.36  278.60
   4 -11   1  812.64  274.82
  -4  11  -1  846.16  275.42
   4 -11   2  788.25  270.86
   4 -11   2  800.49  267.23
  -4  11  -2  838.84  267.84
   4 -11   3   32.81   19.18
   4 -11   3   23.90   13.41
  -4  11  -3   36.80   17.84
   4 -11   4  244.78   79.60
   4 -11   4  236.99   77.03
  -4  11  -4  201.74   78.12
   4 -11   5  128.64   50.25
   4 -11   5  142.79   47.71
  -4  11  -5  147.55   49.72
   4 -11   6  110.68   50.55
   4 -11   6  140.28   48.83
  -4  11  -6  178.02   51.89
   4 -11   7  665.76  224.81
   4 -11   7  710.87  222.16
  -4  11  -7  609.04  223.38
   4 -11   8   20.36   16.57
   4 -11   8    9.94   12.76
  -4  11  -8   11.28   21.56
   4 -11   9  584.69  209.26
   4 -11   9  663.35  207.28
  -4  11  -9  617.67  208.64
   4 -11  10   76.46   29.35
   4 -11  10  103.22   32.46
  -4  11 -10    7.09   33.51
   4 -11  11 1393.57  371.33
   4 -11  11 1290.86  368.37
  -4  11 -11   11.00  366.75
   4 -11  12   45.64   24.39
   4 -10   0  927.70  275.02
   4 -10   0  808.81  271.37
  -4  10   0  737.25  271.70
   4 -10   1  290.00   98.58
   4 -10   1  264.88   96.56
  -4  10  -1  331.77   97.25
   4 -10   2   57.18   23.42
   4 -10   2   61.64   21.04
  -4  10  -2   60.45   21.99
   4 -10   3   77.75   33.74
   4 -10   3   98.25   32.17
  -4  10  -3  101.36   33.20
   4 -10   4   16.10   14.74
   4 -10   4   30.95   10.92
  -4  10  -4   18.80   13.31
   4 -10   5  377.18  121.43
   4 -10   5  348.52  119.21
  -4  10  -5  355.31  119.85
   4 -10   6  405.85  137.51
   4 -10   6  370.26  135.26
  -4  10  -6  474.10  136.26
   4 -10   7   11.93   12.69
   4 -10   7   13.40   12.61
  -4  10  -7   16.18   18.61
   4 -10   8  795.81  284.71
   4 -10   8  953.98  282.17
  -4  10  -8  796.49  282.76
   4 -10   9  627.94  253.18
   4 -10   9  882.09  251.08
   4 -10  10  906.85  264.49
   4 -10  10 1118.73  262.46
  -4  10 -10    8.24  260.86
   4 -10  11  446.18  104.05
  -4  10 -11    5.41  103.91
   4 -10  12  170.63   60.57
   4 -10  13    6.11   23.96
   4  -9   0  494.05  139.51
   4  -9   0  234.94  139.14
   4  -9   0  497.56  137.54
  -4   9   0  323.04  139.55
  -4   9   0  562.12  138.07
   4  -9   1   12.08    9.14
   4  -9   1   10.73   11.49
   4  -9   1   15.62    7.92
  -4   9  -1    9.50   13.04
  -4   9  -1   11.80    9.90
   4  -9   2  201.78   46.91
   4  -9   2   91.97   46.89
   4  -9   2  218.16   45.71
   4  -9   2  103.82   45.42
  -4   9  -2   78.10   46.16
  -4   9  -2  251.41   46.55
  -4   9  -2   89.23   45.14
   4  -9   3  446.54  109.54
   4  -9   3  286.77  109.28
   4  -9   3  556.77  108.08
   4  -9   3  211.95  107.47
  -4   9  -3  232.86  109.08
  -4   9  -3  525.08  108.46
  -4   9  -3  202.66  107.36
   4  -9   4  175.47   38.03
   4  -9   4   81.87   37.24
   4  -9   4  171.28   36.55
   4  -9   4   64.32   35.93
  -4   9  -4   72.46   37.36
  -4   9  -4  174.55   37.29
  -4   9  -4   77.02   35.84
   4  -9   5   25.39   11.08
   4  -9   5   30.53    9.09
   4  -9   5   12.46    7.84
  -4   9  -5    6.54    8.19
  -4   9  -5   25.00   11.03
  -4   9  -5    6.67    7.30
   4  -9   6  270.93   93.32
  -4   9  -6  295.03   93.93
   4  -9   7  532.19  175.47
   4  -9   7  525.81  173.13
  -4   9  -7  504.53  173.77
   4  -9   8  666.64  255.25
   4  -9   8  817.60  252.72
  -4   9  -8  820.60  253.74
   4  -9   9 1269.23  468.79
   4  -9   9 1551.30  464.60
  -4   9  -9 1394.14  465.17
   4  -9  10    1.53    6.89
   4  -9  10    4.37   11.93
  -4   9 -10   -6.99   21.77
   4  -9  11   11.93   13.11
   4  -9  11   15.21   21.75
  -4   9 -11    8.50   12.82
  -4   9 -11    6.75   26.37
   4  -9  12    5.05   13.99
  -4   9 -12   18.62   19.11
  -4   9 -13   15.81   18.17
   4  -9  13    4.87   21.69
   4  -8   0    6.26    8.02
   4  -8   0    5.94    8.97
   4  -8   0    9.51    4.68
   4  -8   0    6.40    6.00
  -4   8   0    6.74   10.76
  -4   8   0    6.56    7.17
  -4   8   0    7.48    5.07
   4  -8   1   45.41   15.49
   4  -8   1   35.63   16.91
   4  -8   1   37.46   13.82
   4  -8   1   33.90   15.21
  -4   8  -1   59.43   15.07
  -4   8  -1   33.44   14.50
   4  -8   2   14.89    7.79
   4  -8   2   11.85    7.53
   4  -8   2   16.35    5.85
   4  -8   2    8.14    8.26
  -4   8  -2    5.37    7.45
  -4   8  -2   17.61    7.88
  -4   8  -2    7.97    7.26
   4  -8   3   56.79   16.62
   4  -8   3   24.75   15.90
   4  -8   3   52.01   14.53
   4  -8   3   29.87   15.31
  -4   8  -3   40.01   16.67
  -4   8  -3   51.96   15.70
  -4   8  -3   30.65   14.73
   4  -8   4  259.72   68.11
   4  -8   4  145.48   67.56
   4  -8   4  311.73   67.13
   4  -8   4  219.03   66.95
  -4   8  -4  119.22   67.44
  -4   8  -4  297.79   67.57
  -4   8  -4  156.09   66.68
   4  -8   5   24.05    9.34
   4  -8   5   12.18    7.42
   4  -8   5    8.96    7.64
  -4   8  -5    8.01    7.35
  -4   8  -5   14.95    9.02
  -4   8  -5    7.12    6.63
   4  -8   6 1983.28  413.93
   4  -8   6  820.42  413.01
   4  -8   6 1894.17  409.71
   4  -8   6 1031.38  409.34
  -4   8  -6  666.77  412.88
  -4   8  -6 2288.65  410.23
  -4   8  -6 1085.91  409.27
   4  -8   7  159.03   37.72
   4  -8   7  138.65   35.46
   4  -8   7   40.30   35.10
  -4   8  -7  183.92   38.45
  -4   8  -7  179.89   37.48
  -4   8  -7   42.15   34.75
   4  -8   8 1262.14  471.63
   4  -8   8 1739.98  467.42
  -4   8  -8 1182.05  471.82
  -4   8  -8 1453.74  467.68
   4  -8   9  152.67   46.17
   4  -8   9  136.28   45.96
  -4   8  -9  108.99   46.30
  -4   8  -9  120.18   48.82
   4  -8  10 1001.65  382.46
   4  -8  10 1256.02  379.10
  -4   8 -10 1139.56  382.75
  -4   8 -10 1243.11  380.10
   4  -8  11   13.27   13.38
   4  -8  11   15.87   17.68
  -4   8 -11   27.09   15.96
  -4   8 -11   14.94   28.79
   4  -8  12   16.69   13.77
  -4   8 -12    8.48   16.66
   4  -8  13  120.82   45.72
  -4   8 -13  125.44   48.58
   4  -7   0 1011.93  356.00
   4  -7   0  818.07  356.08
   4  -7   0 1321.02  352.65
   4  -7   0  851.59  352.50
  -4   7   0 1213.47  352.72
  -4   7   0 1105.22  352.53
  -4   7  -1   76.48    3.57
   4  -7   1  109.16   29.65
   4  -7   1   65.67   29.93
   4  -7   1  104.58   28.77
   4  -7   1   86.44   29.13
  -4   7  -1   57.22   29.40
  -4   7  -1   97.50   29.06
   4  -7   2   81.87   25.87
   4  -7   2   57.17   26.01
   4  -7   2   87.66   24.61
   4  -7   2   80.85   25.27
  -4   7  -2   55.88   26.52
  -4   7  -2   75.53   24.93
  -4   7  -2   60.12   24.83
   4  -7   3  570.84  154.53
   4  -7   3  317.73  154.10
   4  -7   3  571.86  152.50
   4  -7   3  505.06  152.69
  -4   7  -3  275.67  153.98
  -4   7  -3  606.15  152.75
  -4   7  -3  426.47  152.51
   4  -7   4  323.50   85.62
   4  -7   4  206.43   85.33
   4  -7   4  311.31   83.89
   4  -7   4  264.06   84.09
  -4   7  -4  151.13   85.04
  -4   7  -4  286.66   84.14
  -4   7  -4  223.51   83.91
   4  -7   5 2196.08  528.92
   4  -7   5 1041.49  528.29
   4  -7   5 2548.76  523.99
   4  -7   5 1543.68  523.71
  -4   7  -5  811.50  528.15
  -4   7  -5 1954.94  528.95
  -4   7  -5 2493.84  524.22
  -4   7  -5 1342.02  523.57
  -4   7  -6  103.49   24.07
   4  -7   6  355.52   67.96
   4  -7   6   93.47   66.49
   4  -7   6  287.46   66.26
   4  -7   6  153.27   65.89
  -4   7  -6  363.91   68.03
  -4   7  -6  342.78   66.68
  -4   7  -6  103.13   65.52
   4  -7   7  424.93  101.49
   4  -7   7  163.01  100.69
   4  -7   7  485.49  100.15
   4  -7   7  264.28   99.61
  -4   7  -7  176.11  100.61
  -4   7  -7  504.99  101.88
  -4   7  -7  480.51  100.79
  -4   7  -7  200.48   99.45
   4  -7   8  630.62  173.37
   4  -7   8  734.15  171.56
  -4   7  -8  583.05  173.46
  -4   7  -8  650.10  171.99
  -4   7  -8  260.34  170.84
   4  -7   9 1015.05  415.28
   4  -7   9 1668.13  411.78
  -4   7  -9 1055.49  415.44
  -4   7  -9 1289.84  412.18
   4  -7  10   16.91   13.09
   4  -7  10   21.00   15.47
  -4   7 -10   30.41   15.89
   4  -7  11  235.86   76.42
  -4   7 -11  209.25   76.96
   4  -7  12  603.07  202.25
  -4   7 -13   15.69    9.26
   4  -7  13   10.39   14.62
   4  -6   0  283.03   84.93
   4  -6   0  248.97   85.13
   4  -6   0  232.72   83.76
   4  -6   0  250.03   83.62
  -4   6   0  221.07   84.89
  -4   6   0  292.05   83.82
  -4   6   0  245.58   83.71
   4  -6   1  126.63   43.70
   4  -6   1  115.66   43.97
   4  -6   1  136.94   42.71
   4  -6   1  123.72   42.79
  -4   6  -1   96.30   43.88
  -4   6  -1  137.20   42.81
  -4   6  -1  137.91   42.70
   4  -6   2  121.96   37.74
   4  -6   2   75.56   37.11
   4  -6   2  175.90   36.57
   4  -6   2  107.20   36.60
  -4   6  -2   69.46   36.99
  -4   6  -2  121.30   36.55
  -4   6  -2   91.22   36.39
   4  -6   3   39.91   13.77
   4  -6   3   30.32   13.11
   4  -6   3   34.34   11.37
   4  -6   3   33.20   12.41
  -4   6  -3   25.97   12.52
  -4   6  -3   30.48   12.88
  -4   6  -3   39.62   11.85
  -4   6  -3   24.99   11.60
   4  -6   4  921.73  249.36
   4  -6   4  560.85  248.93
   4  -6   4  858.05  246.55
   4  -6   4  809.27  246.61
  -4   6  -4  571.66  248.84
  -4   6  -4  858.32  249.35
  -4   6  -4  968.05  246.76
  -4   6  -4  640.78  246.51
   4  -6   5  317.91   86.03
   4  -6   5  195.15   85.62
   4  -6   5  324.41   84.59
  -4   6  -5  191.37   85.54
  -4   6  -5  283.28   86.23
  -4   6  -5  304.01   84.86
  -4   6  -5  229.94   84.48
   4  -6   6  718.21  224.76
   4  -6   6  454.76  224.45
   4  -6   6 1033.72  222.57
  -4   6  -6  466.17  224.39
  -4   6  -6  785.13  224.95
  -4   6  -6  930.04  222.69
  -4   6  -6  593.46  222.19
   4  -6   7  101.49   28.49
   4  -6   7   47.58   28.04
   4  -6   7  132.71   28.13
   4  -6   7   85.71   27.73
  -4   6  -7   42.52   27.82
  -4   6  -7  104.36   29.03
  -4   6  -7  117.52   29.01
  -4   6  -7   60.41   27.72
   4  -6   8  187.02   65.55
   4  -6   8  267.07   65.13
  -4   6  -8  183.44   65.87
  -4   6  -8  289.74   65.94
  -4   6  -8  133.18   64.47
   4  -6   9    2.99    8.15
   4  -6   9   -2.02    7.91
  -4   6  -9   10.51    9.77
  -4   6  -9    2.44    7.23
   4  -6  10   59.25    4.61
  -4   6 -10   49.16    4.85
   4  -6  10   22.81   18.78
  -4   6 -10   35.30   25.51
   4  -6  11   25.48   13.47
  -4   6 -11   23.21   14.61
   4  -6  12    8.04   11.87
  -4   6 -12    5.79   13.44
   4  -6  13   22.75   21.46
  -4   6 -13   48.18   25.74
   4  -5   0  656.69  222.76
   4  -5   0  706.00  220.27
   4  -5   0  636.81  220.17
  -4   5   0  703.79  222.75
  -4   5   0  638.81  220.23
  -4   5   0  680.13  220.20
   4  -5   1  664.76  205.20
   4  -5   1  524.02  204.94
   4  -5   1  792.61  202.95
   4  -5   1  684.00  202.83
  -4   5  -1  437.69  204.83
  -4   5  -1  637.24  202.87
  -4   5  -1  543.93  202.80
   4  -5   2  137.48   47.65
   4  -5   2  132.97   47.49
   4  -5   2  119.90   46.45
   4  -5   2  134.41   46.37
  -4   5  -2  107.67   47.22
  -4   5  -2  111.85   47.53
  -4   5  -2  177.25   46.54
  -4   5  -2  175.90   46.48
   4  -5   3 2171.44  616.04
   4  -5   3 1510.30  615.77
   4  -5   3 1739.50  610.30
  -4   5  -3 1419.10  615.71
  -4   5  -3 1886.10  616.09
  -4   5  -3 2009.92  610.36
  -4   5  -3 2276.06  610.34
   4  -5   4 2017.62  641.07
   4  -5   4 1576.15  640.93
   4  -5   4 1899.36  635.25
   4  -5   4 1996.73  635.29
  -4   5  -4 1898.85  640.95
  -4   5  -4 2342.06  641.27
  -4   5  -4 2634.12  635.44
  -4   5  -4 1451.94  635.16
   4  -5   5 1482.60  453.78
   4  -5   5 1117.31  453.71
   4  -5   5 1466.52  449.48
   4  -5   5 1473.05  449.57
  -4   5  -5 1023.72  453.58
  -4   5  -5 1394.17  453.86
  -4   5  -5 1621.59  449.66
  -4   5  -5 1381.94  449.48
   4  -5   6   78.77   25.60
   4  -5   6   46.84   25.26
   4  -5   6  109.21   24.97
  -4   5  -6   56.54   25.21
  -4   5  -6   75.92   25.79
  -4   5  -6   92.36   25.53
  -4   5  -6   73.04   24.67
   4  -5   7 2673.03  703.80
   4  -5   7 1457.10  703.33
   4  -5   7 3189.11  697.38
   4  -5   7 1939.30  697.06
  -4   5  -7 1479.07  703.26
  -4   5  -7 2516.11  703.84
  -4   5  -7 3205.89  697.64
  -4   5  -7 1627.96  697.00
   4  -5   8   94.30   33.90
   4  -5   8  103.14   33.13
  -4   5  -8   99.86   34.09
  -4   5  -8  104.51   34.87
  -4   5  -8   87.89   33.20
   4  -5   9  584.76  172.70
  -4   5  -9  684.44  173.01
  -4   5  -9  284.52  170.26
   4  -5  10    3.84    7.54
  -4   5 -10    3.32    9.70
   4  -5  11   15.81    9.98
  -4   5 -11   18.97   11.60
   4  -5  12  456.23  148.79
  -4   5 -12  428.87  148.82
   4  -5  13   29.23   17.71
  -4   5 -13   25.29   20.82
   4  -4   0   35.15   11.70
   4  -4   0   29.67   11.41
   4  -4   0   33.27   10.77
   4  -4   0   27.41   10.59
  -4   4   0   23.85   11.22
  -4   4   0   29.59   10.76
  -4   4   0   34.23   10.78
   4  -4   1  735.40  248.23
   4  -4   1  758.59  248.08
   4  -4   1  733.68  245.68
   4  -4   1  805.43  245.69
  -4   4  -1  590.13  247.98
  -4   4  -1  748.59  248.30
  -4   4  -1  860.41  245.77
  -4   4  -1  751.66  245.64
   4  -4   2 1883.59  642.42
   4  -4   2 1785.22  642.35
   4  -4   2 2030.46  636.67
   4  -4   2 2031.50  636.64
  -4   4  -2 1874.84  642.29
  -4   4  -2 1843.76  642.51
  -4   4  -2 2206.50  636.73
  -4   4  -2 1801.62  636.61
   4  -4   3  226.78   55.15
   4  -4   3  176.11   54.71
   4  -4   3  152.67   53.75
  -4   4  -3  138.63   54.53
  -4   4  -3  211.97   55.26
  -4   4  -3  155.48   53.77
  -4   4  -3  142.18   53.67
   4  -4   4 1480.44  436.01
   4  -4   4  990.88  435.85
   4  -4   4 1373.20  431.86
  -4   4  -4 1013.03  435.79
  -4   4  -4 1545.06  436.13
  -4   4  -4 1521.59  431.87
   4  -4   5   92.88   34.73
   4  -4   5   76.21   34.74
   4  -4   5  118.31   33.97
   4  -4   5  123.37   34.05
  -4   4  -5   99.57   34.74
  -4   4  -5  105.98   34.83
  -4   4  -5   99.97   34.08
  -4   4  -5   96.07   33.97
   4  -4   6 2236.06  744.63
   4  -4   6 1746.61  744.63
   4  -4   6 3307.16  738.27
   4  -4   6 2023.59  738.01
  -4   4  -6 1834.41  744.58
  -4   4  -6 2159.51  744.74
  -4   4  -6 2845.73  738.33
  -4   4  -6 2452.67  738.10
  -4   4  -7   63.98    7.83
   4  -4   7   92.04   27.32
   4  -4   7   57.14   27.31
   4  -4   7  105.33   26.86
   4  -4   7   72.11   26.60
  -4   4  -7   91.06   27.37
  -4   4  -7   77.15   26.63
   4  -4   8   37.57   14.00
  -4   4  -8   37.04   13.97
   4  -4   9  273.25   85.78
  -4   4  -9  233.57   85.81
   4  -4  10   46.27   17.84
  -4   4 -10   45.09   17.82
   4  -4  11    2.69    8.61
  -4   4 -11    3.00    9.69
   4  -4  12  117.95   12.51
  -4   4 -12  119.17   13.23
   4  -4  13    5.10    9.83
  -4   4 -13    7.25    9.56
   4  -3   0    9.89    3.46
   4  -3   0    6.48    3.45
   4  -3   0    2.37    2.70
  -4   3   0    3.29    2.55
  -4   3   0    8.57    3.74
  -4   3   0    3.48    3.07
  -4   3   0    3.67    3.58
   4  -3   1  271.07   84.88
   4  -3   1  238.27   84.79
   4  -3   1  253.55   83.73
   4  -3   1  254.59   83.73
  -4   3  -1  220.42   84.69
  -4   3  -1  301.51   85.01
  -4   3  -1  243.37   83.78
  -4   3  -1  263.42   83.74
   4  -3   2  330.43  101.75
   4  -3   2  271.24  101.65
   4  -3   2  292.88  100.41
   4  -3   2  284.72  100.39
  -4   3  -2  290.62  101.59
  -4   3  -2  336.66  101.90
  -4   3  -2  287.85  100.43
  -4   3  -2  356.25  100.47
   4  -3   3 2299.43  898.99
   4  -3   3 2556.26  891.11
   4  -3   3 3070.37  891.13
  -4   3  -3 2731.73  898.96
  -4   3  -3 3521.08  899.42
  -4   3  -3 2377.10  891.14
  -4   3  -3 2581.32  891.13
   4  -3   4  511.02  159.00
   4  -3   4  397.34  158.89
   4  -3   4  485.97  157.16
  -4   3  -4  506.47  158.85
  -4   3  -4  564.26  159.21
  -4   3  -4  463.06  157.19
  -4   3  -4  439.13  157.14
  -4   3  -5   35.03    2.26
   4  -3   5   41.31   15.82
   4  -3   5   35.24   15.82
   4  -3   5   55.80   15.00
   4  -3   5   40.79   15.02
  -4   3  -5   48.95   16.14
  -4   3  -5   52.82   15.23
  -4   3  -5   47.31   15.27
   4  -3   6  145.43   41.50
   4  -3   6  112.80   41.44
   4  -3   6  146.61   40.56
  -4   3  -6   79.29   41.19
  -4   3  -6  159.59   41.80
  -4   3  -6  171.73   40.93
  -4   3  -6   79.09   40.35
   4  -3   7    8.11    1.15
  -4   3  -7    5.75    1.01
   4  -3   7   16.74    6.83
  -4   3  -7   15.33    7.59
   4  -3   8  281.65   95.44
  -4   3  -8  286.13   95.62
  -4   3  -9   46.09    2.41
   4  -3   9   42.76   16.31
   4  -3  10   99.85   33.83
  -4   3 -10   94.85   33.89
   4  -3  11    3.61    6.83
  -4   3 -11    7.34    7.05
   4  -3  12   -1.90    8.43
  -4   3 -12   -2.96    8.58
   4  -2   0  494.17  163.03
   4  -2   0  449.77  161.34
   4  -2   0  420.73  161.29
  -4   2   0  507.57  162.96
  -4   2   0  514.39  161.36
  -4   2   0  587.35  161.42
   4  -2   1 1630.71  533.27
   4  -2   1 1182.44  533.30
   4  -2   1 1503.31  528.50
   4  -2   1 1167.16  528.45
  -4   2  -1 1813.93  533.28
  -4   2  -1 1882.79  533.36
  -4   2  -1 2031.61  528.57
  -4   2  -1 1706.34  528.56
   4  -2   2 4489.23 1584.02
   4  -2   2 4671.94 1584.12
   4  -2   2 4410.36 1570.50
  -4   2  -2 5538.29 1584.06
  -4   2  -2 4048.22 1584.09
  -4   2  -2 5340.06 1570.56
   4  -2   3  503.16  152.80
   4  -2   3  421.12  152.87
   4  -2   3  388.55  151.11
   4  -2   3  515.49  151.18
  -4   2  -3  488.37  152.80
  -4   2  -3  445.29  152.86
  -4   2  -3  473.51  151.19
  -4   2  -3  428.07  151.13
   4  -2   4 1015.89  326.88
   4  -2   4  952.50  327.01
   4  -2   4  972.26  323.74
  -4   2  -4  955.53  326.90
  -4   2  -4  944.63  326.96
  -4   2  -4 1046.00  323.77
  -4   2  -5  367.52   59.84
   4  -2   5  510.37  151.37
   4  -2   5  478.23  151.52
   4  -2   5  504.35  149.59
  -4   2  -5  347.63  151.28
  -4   2  -5  505.30  149.64
  -4   2  -5  470.72  149.63
   4  -2   6  188.35   56.93
   4  -2   6  141.30   57.15
  -4   2  -6  148.56   57.04
  -4   2  -6  189.20   57.04
   4  -2   7  207.11   32.70
  -4   2  -7  244.59   33.07
   4  -2   7  256.81   88.24
  -4   2  -7  323.25   88.42
   4  -2   8   14.18    7.51
  -4   2  -8   16.21    8.36
   4  -2   9  180.03   61.47
  -4   2  -9  182.61   61.64
   4  -2  10  131.71   14.29
  -4   2 -10  119.03   13.53
   4  -2  11   42.24   15.91
  -4   2 -11   43.02   16.52
   4  -2  12  170.60   21.89
  -4   2 -12  178.47   21.78
   4  -1   0  102.99   31.11
   4  -1   0   81.82   31.11
   4  -1   0  114.30   30.64
   4  -1   0   90.19   30.59
  -4   1   0   78.23   31.04
  -4   1   0   72.81   31.18
  -4   1   0   72.14   30.55
  -4   1   0  114.76   30.68
   4  -1   1 4544.33 1365.96
   4  -1   1 4259.32 1366.00
   4  -1   1 4016.74 1354.26
   4  -1   1 3984.66 1354.24
  -4   1  -1 4224.03 1365.95
  -4   1  -1 4130.79 1366.05
  -4   1  -1 3865.62 1354.25
  -4   1  -1 3807.77 1354.26
   4  -1   2  131.14   45.81
   4  -1   2  144.56   45.94
   4  -1   2  139.12   45.05
  -4   1  -2  129.56   45.82
  -4   1  -2  129.92   45.95
  -4   1  -2  136.35   45.07
  -4   1  -2  142.90   45.16
   4  -1   3 2016.36  603.21
   4  -1   3 1705.96  603.25
   4  -1   3 1693.18  597.77
   4  -1   3 2177.74  597.80
  -4   1  -3 1704.11  603.21
  -4   1  -3 1787.16  603.31
  -4   1  -3 1754.16  597.77
  -4   1  -3 1531.08  597.77
  -4   1  -4  381.47   49.58
   4  -1   4  421.01  126.56
   4  -1   4  382.01  126.69
   4  -1   4  396.43  125.05
   4  -1   4  334.48  124.94
  -4   1  -4  434.93  126.73
  -4   1  -4  293.72  124.96
  -4   1  -4  408.90  125.11
   4  -1   5  406.63   77.87
   4  -1   5  567.57  193.48
  -4   1  -5  536.27  193.37
  -4   1  -5  842.16  193.64
   4  -1   6  146.72   48.39
   4  -1   6  135.85   48.79
  -4   1  -6  145.18   48.64
  -4   1  -6  142.16   48.51
   4  -1   7  129.10   40.23
  -4   1  -7  104.47   40.33
   4  -1   8  211.42   71.18
  -4   1  -8  210.40   71.31
   4  -1   9  278.70   89.84
  -4   1  -9  253.56   89.98
   4  -1  10  264.10   86.84
  -4   1 -10  249.78   86.99
   4  -1  11  380.70  124.62
  -4   1 -11  359.32  124.82
   4   0   0 3802.34 1385.36
   4   0   0 4151.75 1385.43
   4   0   0 4825.32 1373.60
   4   0   0 4253.36 1373.58
  -4   0   0 3890.45 1385.33
  -4   0   0 4314.76 1385.47
  -4   0   0 4465.26 1373.57
  -4   0   0 3752.04 1373.56
   4   0   1   19.91    8.95
   4   0   1   29.02    9.24
   4   0   1   26.30    9.02
   4   0   1   28.56    8.61
  -4   0  -1   25.50    9.10
  -4   0  -1   20.71    9.19
  -4   0  -1   24.47    8.69
  -4   0  -1   24.64    9.01
   4   0   2   19.80    7.80
   4   0   2   22.28    8.24
   4   0   2   18.98    7.39
  -4   0  -2   20.97    7.92
  -4   0  -2   20.40    8.11
  -4   0  -2   22.98    7.93
   4   0   3    8.66    0.67
  -4   0  -3    8.56    0.81
   4   0   3   14.45    6.78
   4   0   3   23.22    5.95
   4   0   3   12.69    5.26
  -4   0  -3   16.11    6.20
   4   0   4 1037.32  278.83
   4   0   4  669.11  278.91
   4   0   4  688.05  275.96
  -4   0  -4  649.36  278.80
  -4   0  -4 1031.95  278.97
   4   0   5  429.73  149.84
   4   0   5  419.10  150.18
  -4   0  -5  446.12  150.09
  -4   0  -5  497.58  150.04
  -4   0  -6  101.66    9.58
   4   0   6   95.66   33.73
   4   0   7  536.44  174.64
  -4   0  -7  505.76  174.76
   4   0   8  316.49  106.31
  -4   0  -8  316.78  106.46
   4   0   9  120.71   41.67
  -4   0  -9  120.96   41.84
   4   0  10 1157.13  387.79
  -4   0 -10 1170.90  387.90
   4   0  11  142.08   51.08
  -4   0 -11  151.63   51.11
   4   1   0   16.13    6.58
   4   1   0   20.57    6.78
   4   1   0   18.32    7.37
   4   1   0   13.75    6.34
  -4  -1   0   15.74    6.85
  -4  -1   0   20.15    7.09
   4   1   1  270.89   90.88
   4   1   1  284.86   90.94
   4   1   1  278.18   89.85
   4   1   1  242.41   89.73
  -4  -1  -1  250.76   90.95
  -4  -1  -1  252.12   89.73
  -4  -1  -1  365.42   90.03
   4   1   2   55.37   18.08
   4   1   2   55.80   18.23
   4   1   2   47.94   17.84
   4   1   2   51.60   17.63
  -4  -1  -2   53.74   18.24
  -4  -1  -2   49.12   17.65
  -4  -1  -2   48.27   18.16
   4   1   3   99.37   30.80
   4   1   3   93.11   31.03
   4   1   3   87.48   30.49
   4   1   3   75.04   30.12
  -4  -1  -3  111.17   31.03
  -4  -1  -3   83.33   30.92
  -4  -1  -3   75.92   30.09
  -4  -1  -3  104.49   30.89
   4   1   4  235.20   71.09
   4   1   4  200.02   71.36
   4   1   4  218.64   70.06
  -4  -1  -4  206.77   71.28
  -4  -1  -4  190.34   71.20
   4   1   5  210.16   26.09
   4   1   5  226.52   74.27
  -4  -1  -5  218.97   74.60
  -4  -1  -5  222.44   74.42
   4   1   6  134.06   48.60
  -4  -1  -6  154.68   48.89
   4   1   7   11.87    7.21
  -4  -1  -7   11.55    7.97
   4   1   8  126.76   13.77
  -4  -1  -8  116.57   13.25
   4   1   9  259.98   87.22
  -4  -1  -9  256.15   87.33
   4   1  10    4.52    9.22
  -4  -1 -10    0.54    7.11
   4   2   0 2824.03  888.13
   4   2   0 2613.32  888.19
   4   2   0 2604.85  880.43
   4   2   0 2911.33  880.43
  -4  -2   0 2449.65  888.15
  -4  -2   0 2709.33  880.39
  -4  -2   0 2471.27  880.49
   4   2   1  250.80   90.90
   4   2   1  173.19   90.98
   4   2   1  381.09   90.24
   4   2   1  212.44   89.80
  -4  -2  -1  377.30   91.18
  -4  -2  -1  258.46   89.87
   4   2   2 1150.12  333.90
   4   2   2  999.60  334.07
   4   2   2 1228.27  330.96
   4   2   2  787.65  330.65
  -4  -2  -2 1063.17  334.01
  -4  -2  -2  835.28  330.67
  -4  -2  -2 1055.30  331.05
  -4  -2  -3  502.24   72.76
   4   2   3  546.73  182.24
   4   2   3  547.68  182.60
   4   2   3  543.40  180.44
   4   2   3  601.74  180.40
  -4  -2  -3  550.74  180.32
  -4  -2  -3  516.59  180.50
   4   2   4  267.31   86.26
   4   2   4  229.25   85.07
   4   2   4  277.41   85.16
  -4  -2  -4  270.68   86.41
  -4  -2  -4  266.36   85.13
  -4  -2  -4  219.95   85.25
   4   2   5    6.88    5.45
  -4  -2  -5    5.51    6.83
   4   2   6 1263.01  422.68
  -4  -2  -6 1276.23  422.84
   4   2   7  142.47   49.87
  -4  -2  -7  150.46   49.98
   4   2   8   34.46   14.46
  -4  -2  -8   33.61   14.49
   4   2   9   36.00   16.44
  -4  -2  -9   44.29   16.93
   4   3   0  487.60  141.98
   4   3   0  322.34  140.58
   4   3   0  381.94  140.48
  -4  -3   0  527.30  142.13
  -4  -3   0  411.44  140.49
  -4  -3   0  316.07  140.77
   4   3   1  522.71  189.86
   4   3   1  641.91  190.23
   4   3   1  523.37  188.08
   4   3   1  569.88  188.03
  -4  -3  -1  491.48  189.97
  -4  -3  -1  670.97  188.08
  -4  -3  -1  581.45  188.34
   4   3   2   76.10   26.93
   4   3   2   78.89   27.65
   4   3   2   84.47   26.74
  -4  -3  -2   82.05   27.18
  -4  -3  -2   65.41   27.24
   4   3   3  281.53   89.30
   4   3   3  267.73   88.33
  -4  -3  -3  246.84   89.42
  -4  -3  -3  263.98   88.28
   4   3   4  112.88   27.19
   4   3   4   59.55   26.36
   4   3   4   45.87   26.39
  -4  -3  -4  122.66   27.57
  -4  -3  -4   35.55   26.64
   4   3   5 1255.23  415.63
  -4  -3  -5 1238.67  415.76
   4   3   6   12.81    7.54
  -4  -3  -6   12.26    8.77
   4   3   7  855.72  324.67
  -4  -3  -7 1117.24  325.02
   4   3   8   82.45   29.86
  -4  -3  -8   83.72   30.35
   4   4   0  247.91   70.87
   4   4   0  193.26   71.23
   4   4   0  147.58   70.03
   4   4   0  191.91   69.94
  -4  -4   0  286.32   71.09
  -4  -4   0  205.29   69.93
  -4  -4   0  153.09   70.17
   4   4   1   15.71    7.33
   4   4   1   10.20    9.04
   4   4   1   10.86   10.30
   4   4   1   26.05   11.21
  -4  -4  -1   18.09    8.03
  -4  -4  -1   23.28   11.17
  -4  -4  -1   10.77    9.24
   4   4   2  122.02   37.35
   4   4   2  100.95   37.20
  -4  -4  -2  113.96   37.54
  -4  -4  -2   87.41   37.93
   4   4   3  883.36  233.11
   4   4   3  403.65  230.54
   4   4   3  629.63  230.75
  -4  -4  -3 1109.27  233.47
  -4  -4  -3  405.39  230.77
   4   4   4    6.36    5.87
   4   4   4    2.33    8.24
   4   4   4    1.74    6.34
  -4  -4  -4    6.44    7.15
  -4  -4  -4    1.17    6.77
   4   4   5   47.32   18.28
  -4  -4  -5   51.53   18.72
   4   4   6  129.91   44.32
  -4  -4  -6  127.20   44.72
   4   4   7   71.97   28.07
  -4  -4  -7   86.10   28.77
   4   5   0  713.14  219.07
   4   5   0  507.46  217.03
   4   5   0  759.10  217.14
  -4  -5   0  644.09  219.13
  -4  -5   0  700.66  216.95
  -4  -5   0  581.01  217.12
   4   5   1   28.53   10.85
   4   5   1    8.61    9.51
   4   5   1   32.58   14.44
  -4  -5  -1   30.68   12.55
  -4  -5  -1   23.66   11.99
  -4  -5  -1   19.43   12.75
   4   5   2  510.59  150.90
   4   5   2  416.35  149.50
  -4  -5  -2  496.87  151.15
  -4  -5  -2  351.08  149.52
   4   5   3  420.02  114.01
   4   5   3  221.21  113.06
  -4  -5  -3  461.48  114.33
  -4  -5  -3  223.65  112.62
   4   5   4    0.99    6.38
  -4  -5  -4    4.94    5.98
   4   5   5   31.48   13.25
  -4  -5  -5   31.93   13.87
   4   5   6   39.82   16.80
  -4  -5  -6   45.59   17.78
   4   6   0   10.34    9.41
   4   6   0    9.98   14.01
  -4  -6   0   11.65   10.88
  -4  -6   0    4.29    9.73
  -4  -6  -1  109.82   10.59
   4   6   1   97.36   31.65
   4   6   1   77.81   34.61
  -4  -6  -1   66.65   32.53
   4   6   2  325.51   99.09
   4   6   2  249.15   98.97
  -4  -6  -2  304.15   99.41
  -4  -6  -2  275.05   99.09
   4   6   3   51.18   18.46
   4   6   3   12.76   21.06
  -4  -6  -3   71.74   19.46
   4   6   4 1083.29  365.26
  -4  -6  -4 1111.36  365.49
   4   6   5   -0.09    6.48
  -4  -6  -5    1.96    6.29
   4   7   0  201.14   65.72
   4   7   0  180.08   65.76
  -4  -7   0  204.63   66.02
  -4  -7   0  173.16   64.98
   4   7   1  214.71   60.29
   4   7   1  231.17   65.36
  -4  -7  -1  224.24   60.74
  -4  -7  -1   -3.62   59.12
   4   7   2   94.62   33.25
   4   7   2   66.33   37.58
  -4  -7  -2  109.64   34.20
   4   7   3  739.35  240.78
  -4  -7  -3  696.77  240.97
   4   7   4  162.22   56.40
  -4  -7  -4  163.71   56.55
   4   8   0    6.57   10.97
   4   8   0   -3.89   19.10
  -4  -8   0   -1.50   12.95
  -4  -8   0   -1.27   17.98
   4   8   1    5.39   10.04
   4   8   1    3.32   26.49
  -4  -8  -1    5.76   12.32
   4   8   2  147.50   53.38
  -4  -8  -2  158.61   54.08
   4   9   0   13.25   12.79
  -4  -9   0   14.32   14.95
   4   9   1  714.79  273.86
  -4  -9  -1  940.80  274.50
   5 -14   3    8.61   17.69
  -5  14  -3    4.05   34.18
   5 -14   4    3.98   77.35
   5 -14   4  202.06   67.73
  -5  14  -4  337.88   75.56
   5 -14   5  -16.81  210.80
   5 -14   5  806.61  206.85
  -5  14  -5  870.00  211.15
   5 -14   6   24.27   38.33
   5 -14   6   40.94   22.09
  -5  14  -6   52.56   42.51
   5 -14   7    4.80   16.24
  -5  14  -7   12.58   40.39
   5 -14   8   10.08   33.76
   5 -14   8   24.02   23.64
  -5  14  -8   -0.66   35.54
   5 -13   0    9.65   26.99
  -5  13   0   92.81   36.05
   5 -13   1  -14.09   34.04
   5 -13   1   21.31   18.90
  -5  13  -1   30.14   30.79
   5 -13   2    9.21  202.16
   5 -13   2  724.56  199.11
  -5  13  -2  894.94  201.74
   5 -13   3    6.10   29.56
   5 -13   3    5.25   14.31
  -5  13  -3    2.54   24.47
   5 -13   4  945.19  380.93
   5 -13   4 1140.00  375.88
  -5  13  -4 1302.01  377.45
   5 -13   5   46.35   34.33
   5 -13   5   69.27   27.92
  -5  13  -5   69.64   34.98
   5 -13   6  568.45  203.03
   5 -13   6  659.89  199.46
  -5  13  -6  526.22  201.83
   5 -13   7  196.37   71.11
   5 -13   7  188.60   66.78
  -5  13  -7  197.12   71.00
   5 -13   8    8.42   24.47
   5 -13   8    5.17   15.24
  -5  13  -8    9.51   28.76
   5 -13   9   59.48   35.51
   5 -13   9   70.42   33.70
  -5  13  -9   13.64   38.37
   5 -13  10  387.74  135.57
   5 -12   0    7.91   25.42
   5 -12   0   19.83   13.20
  -5  12   0   26.23   21.12
   5 -12   1   16.03  261.49
   5 -12   1 1027.16  258.68
  -5  12  -1 1009.54  259.66
   5 -12   2  770.58  216.94
   5 -12   2  549.42  212.04
  -5  12  -2  689.76  213.22
   5 -12   3  837.28  291.21
   5 -12   3  848.44  286.86
  -5  12  -3  924.88  287.75
   5 -12   4  671.82  217.53
   5 -12   4  633.44  213.73
  -5  12  -4  638.66  214.56
   5 -12   5  810.31  279.62
   5 -12   5  756.59  275.45
  -5  12  -5  993.78  276.74
   5 -12   6   38.99   22.55
   5 -12   6   28.41   16.68
  -5  12  -6   30.24   24.03
   5 -12   7  842.56  301.16
   5 -12   7 1000.35  297.64
  -5  12  -7  790.00  298.46
   5 -12   8  345.21  115.10
   5 -12   8  322.26  112.39
  -5  12  -8  338.36  114.90
   5 -12   9  130.08   45.26
   5 -12   9  169.36   44.78
  -5  12  -9   -0.58   45.66
   5 -12  10   56.08   25.88
   5 -12  10   51.31   28.77
  -5  12 -10   23.70   45.22
   5 -12  11  436.44  149.27
   5 -11   0  348.94  102.60
   5 -11   0  274.30   98.39
  -5  11   0  285.61   99.33
   5 -11   1  461.13  141.71
   5 -11   1  379.66  137.95
  -5  11  -1  442.08  138.72
   5 -11   2  756.91  244.72
   5 -11   2  733.80  240.93
  -5  11  -2  696.23  241.37
   5 -11   3   25.17   17.29
   5 -11   3   20.26   10.70
  -5  11  -3   16.47   14.02
   5 -11   4  203.75   69.91
   5 -11   4  193.11   66.99
  -5  11  -4  205.90   68.02
   5 -11   5   27.25   17.67
   5 -11   5   17.74   11.99
  -5  11  -5   33.41   15.82
   5 -11   6   14.95   16.06
   5 -11   6   10.38   11.88
  -5  11  -6   12.03   16.16
   5 -11   7    9.16   15.41
   5 -11   7    9.55   12.27
  -5  11  -7   13.44   23.37
   5 -11   8    7.78   14.21
   5 -11   8    3.94   15.74
  -5  11  -8   -3.25   19.45
   5 -11   9   41.95   22.67
   5 -11   9   62.86   26.78
   5 -11  10   56.01   21.52
   5 -11  10   64.88   26.33
  -5  11 -10  -19.63   40.98
   5 -11  11  113.34   33.28
   5 -11  11   95.85   34.63
  -5  11 -11  -18.88   41.35
   5 -11  12  473.19  160.74
   5 -10   0  471.61  151.13
   5 -10   0  432.20  148.42
  -5  10   0  449.44  148.97
   5 -10   1  544.81  217.92
   5 -10   1  712.68  215.38
  -5  10  -1  647.75  215.71
   5 -10   2   24.64   13.60
   5 -10   2   27.81   12.85
  -5  10  -2   23.86   14.50
   5 -10   3 2028.10  733.90
   5 -10   3 2281.50  726.98
  -5  10  -3 2260.58  727.28
   5 -10   4  241.58   81.82
   5 -10   4  213.70   79.70
  -5  10  -4  277.33   80.43
   5 -10   5  301.26  103.36
   5 -10   5  313.31  101.20
  -5  10  -5  292.86  101.69
   5 -10   6  131.27   56.37
   5 -10   6  196.11   54.97
  -5  10  -6  149.43   55.70
   5 -10   7   85.32   35.16
   5 -10   7  110.16   33.89
  -5  10  -7   90.99   36.06
   5 -10   8 2089.17  780.11
  -5  10  -8 2726.03  773.96
   5 -10   9   27.29   16.23
   5 -10   9   24.73   23.50
  -5  10  -9   22.29   22.38
   5 -10  10    2.51   13.40
   5 -10  10   -0.57   23.08
   5 -10  11   20.68   15.04
   5 -10  11    9.01   20.26
  -5  10 -11   -3.96   30.81
   5 -10  12  156.80   58.43
   5  -9   0  597.19  153.37
   5  -9   0  227.95  152.81
   5  -9   0  599.56  151.08
  -5   9   0  225.17  152.62
  -5   9   0  615.51  151.66
   5  -9   1  295.24   88.99
   5  -9   1  170.33   88.65
   5  -9   1  294.29   87.21
  -5   9  -1  282.16   87.69
   5  -9   2 2269.04  661.62
   5  -9   2 1440.23  661.41
   5  -9   2 2230.20  655.24
  -5   9  -2 1272.19  661.33
  -5   9  -2 2500.69  655.61
   5  -9   3   64.72   19.26
   5  -9   3   40.28   18.63
   5  -9   3   53.39   17.16
  -5   9  -3   26.88   17.57
  -5   9  -3   81.00   18.77
   5  -9   4  139.67   58.24
   5  -9   4  190.57   57.03
  -5   9  -4  172.71   57.77
   5  -9   5  383.14  161.69
   5  -9   5  564.41  160.01
  -5   9  -5  477.60  160.17
   5  -9   6    7.33   10.88
   5  -9   6    7.33    7.66
  -5   9  -6    4.79   10.04
   5  -9   7   41.79   19.20
   5  -9   7   40.55   18.34
  -5   9  -7   53.55   21.63
   5  -9   8   99.92   35.25
   5  -9   8   86.00   34.10
  -5   9  -8  112.11   39.36
   5  -9   9   40.17   19.42
   5  -9   9   51.91   22.28
  -5   9  -9   47.33   21.70
  -5   9  -9   33.45   24.05
   5  -9  10  324.17   39.12
  -5   9 -10  297.13   37.50
   5  -9  10  321.80  107.93
   5  -9  11   78.15   26.06
   5  -9  11   34.27   30.85
  -5   9 -11   76.96   28.40
   5  -9  12  221.20   74.26
  -5   9 -12  201.92   75.77
   5  -9  13   -0.60   10.99
  -5   9 -13   -1.65   19.39
   5  -8   0  258.46   79.07
   5  -8   0  156.32   78.87
   5  -8   0  329.53   77.80
   5  -8   0  190.47   77.70
  -5   8   0  307.38   77.99
  -5   8   0  167.12   77.60
   5  -8   1  705.15  197.81
   5  -8   1  588.36  197.91
   5  -8   1  734.23  195.45
   5  -8   1  546.32  195.38
  -5   8  -1  468.20  197.78
  -5   8  -1  698.07  195.60
  -5   8  -1  419.54  195.28
   5  -8   2  226.49   59.35
   5  -8   2  141.01   59.10
   5  -8   2  227.26   57.82
   5  -8   2  148.35   57.78
  -5   8  -2  123.86   58.54
  -5   8  -2  238.61   58.17
  -5   8  -2  143.22   57.70
   5  -8   3   15.89    8.66
   5  -8   3    9.96    8.34
   5  -8   3   13.58    5.42
   5  -8   3   13.44    6.59
  -5   8  -3    5.70    7.25
  -5   8  -3   15.52    7.42
  -5   8  -3    5.70    5.83
   5  -8   4   47.34   12.60
   5  -8   4   17.33   12.08
   5  -8   4   40.98   10.65
   5  -8   4   28.70   11.19
  -5   8  -4   14.75   11.33
  -5   8  -4   47.52   12.27
  -5   8  -4   19.99   10.70
   5  -8   5  361.59   72.43
   5  -8   5  111.27   71.20
   5  -8   5  383.48   70.77
   5  -8   5  209.63   70.35
  -5   8  -5  108.36   71.07
  -5   8  -5  380.74   71.46
  -5   8  -5  130.66   70.07
   5  -8   6   67.34   21.18
   5  -8   6   76.77   18.67
   5  -8   6   25.37   18.44
  -5   8  -6   77.17   21.99
  -5   8  -6   64.11   19.65
  -5   8  -6   26.93   17.95
   5  -8   7   31.48   14.80
   5  -8   7   33.37   14.17
  -5   8  -7   26.07   15.35
  -5   8  -7   34.58   15.12
   5  -8   8  267.99  105.27
   5  -8   8  419.85  104.33
  -5   8  -8  235.16  105.55
   5  -8   9 2093.51  766.93
   5  -8   9 2741.55  760.63
  -5   8  -9 2154.77  767.06
   5  -8  10  130.65   40.84
   5  -8  10  106.75   41.74
  -5   8 -10  114.48   41.77
  -5   8 -10   86.96   46.97
   5  -8  11  898.21  283.67
  -5   8 -11  929.73  283.95
  -5   8 -11  550.51  283.43
   5  -8  12  395.34  136.28
  -5   8 -12  410.64  136.85
  -5   8 -13   78.48   12.07
   5  -7   0 1644.38  496.63
   5  -7   0 1385.87  496.75
   5  -7   0 1926.74  492.11
  -5   7   0 1242.78  496.66
  -5   7   0 1566.37  491.98
  -5   7   0 1206.15  491.81
   5  -7   1   29.48   12.12
   5  -7   1   19.76   10.76
   5  -7   1   33.01   10.46
   5  -7   1   34.75   11.07
  -5   7  -1   21.11   10.66
  -5   7  -1   28.70   10.61
  -5   7  -1   26.79   10.62
   5  -7   2  600.46  210.85
   5  -7   2  639.75  210.93
   5  -7   2  872.35  208.64
   5  -7   2  620.04  208.58
  -5   7  -2  424.14  210.64
  -5   7  -2  659.33  208.59
  -5   7  -2  539.82  208.47
   5  -7   3   61.72   17.96
   5  -7   3   39.63   16.72
   5  -7   3   56.43   15.85
   5  -7   3   49.84   16.19
  -5   7  -3   28.29   16.12
  -5   7  -3   53.48   16.30
  -5   7  -3   37.31   15.96
   5  -7   4    3.98    9.18
   5  -7   4    2.39    5.68
   5  -7   4    5.53    4.83
   5  -7   4    1.69    5.57
  -5   7  -4    2.53    4.32
  -5   7  -4    5.01    9.58
  -5   7  -4    4.42    6.00
  -5   7  -4    3.81    5.26
   5  -7   5  884.77  227.25
   5  -7   5  475.67  226.66
   5  -7   5  824.34  224.50
   5  -7   5  451.13  224.42
  -5   7  -5  520.28  226.61
  -5   7  -5  867.37  227.27
  -5   7  -5  937.06  224.87
  -5   7  -5  671.89  224.47
   5  -7   6  111.83   33.30
   5  -7   6   44.38   32.21
   5  -7   6  155.70   32.38
   5  -7   6   70.63   31.84
  -5   7  -6   36.40   31.92
  -5   7  -6  130.88   34.15
  -5   7  -6  157.65   32.96
   5  -7   7   16.54    8.48
   5  -7   7   15.50    9.11
   5  -7   7    5.36    8.67
  -5   7  -7   21.79   10.63
  -5   7  -7    7.83    9.17
   5  -7   8  638.10  231.91
   5  -7   8  861.62  229.83
  -5   7  -8  607.24  232.10
  -5   7  -8  632.33  230.45
   5  -7   9  313.91   39.37
   5  -7   9  310.20  105.20
  -5   7  -9  318.38  106.91
  -5   7 -10 1265.53  139.79
   5  -7  10 1198.82  344.88
   5  -7  10  577.09  341.44
  -5   7 -10 1063.73  343.54
   5  -7  11  150.55   51.62
  -5   7 -11  142.90   52.30
   5  -7  12  203.97   72.01
  -5   7 -12  213.02   72.76
   5  -7  13   78.48   33.10
  -5   7 -13   73.95   33.69
   5  -6   0  441.79  141.87
   5  -6   0  345.06  141.61
   5  -6   0  422.26  140.12
   5  -6   0  448.44  140.06
  -5   6   0  380.21  141.52
  -5   6   0  499.94  140.18
  -5   6   0  414.64  140.03
   5  -6   1  329.67  111.91
   5  -6   1  340.96  111.98
   5  -6   1  324.23  110.36
   5  -6   1  359.76  110.31
  -5   6  -1  324.03  111.74
  -5   6  -1  349.00  110.38
  -5   6  -1  310.23  110.24
   5  -6   2   30.72   11.43
   5  -6   2   26.11    9.81
   5  -6   2   34.99    9.21
  -5   6  -2   13.52    9.36
  -5   6  -2   30.14   11.75
  -5   6  -2   24.79    9.44
  -5   6  -2   20.72    9.24
   5  -6   3   35.40   12.84
   5  -6   3   24.05   11.52
   5  -6   3   37.23   11.34
  -5   6  -3   22.71   11.24
  -5   6  -3   45.47   13.62
  -5   6  -3   36.90   11.06
  -5   6  -3   20.92   10.75
   5  -6   4  492.22  150.20
   5  -6   4  370.96  149.92
   5  -6   4  477.25  148.32
   5  -6   4  378.31  148.28
  -5   6  -4  397.03  149.85
  -5   6  -4  513.71  150.40
  -5   6  -4  564.45  148.53
  -5   6  -4  451.36  148.23
   5  -6   5   42.11    1.46
   5  -6   5   23.28   13.05
   5  -6   5   43.44   12.08
   5  -6   5   31.84   12.78
  -5   6  -5   23.03   12.51
  -5   6  -5   42.83   14.40
  -5   6  -5   35.82   12.79
  -5   6  -5   33.65   12.90
   5  -6   6  358.39  105.67
   5  -6   6  205.06  105.42
   5  -6   6  397.56  104.34
  -5   6  -6  218.14  105.35
  -5   6  -6  353.58  105.88
  -5   6  -6  472.58  104.85
  -5   6  -6  289.62  104.30
   5  -6   7  686.20  243.59
   5  -6   7  938.72  241.46
  -5   6  -7  658.45  243.71
  -5   6  -7  944.21  241.71
  -5   6  -7  540.50  241.11
   5  -6   8   23.76   10.41
   5  -6   8    7.08    8.47
  -5   6  -8   24.89   11.06
  -5   6  -8   18.66   14.83
   5  -6   9   71.45   25.65
   5  -6   9   61.27   26.33
  -5   6  -9   77.58   25.98
  -5   6  -9   62.96   30.49
   5  -6  10   29.52   13.63
  -5   6 -10   29.73   14.40
   5  -6  11  450.84  144.70
  -5   6 -11  408.21  144.81
   5  -6  12   90.21   39.66
  -5   6 -12  131.45   40.43
  -5   6 -13   81.78   36.60
   5  -5   0  310.10   12.33
   5  -5   0  346.11  117.27
   5  -5   0  341.35  115.68
  -5   5   0  404.78  115.80
  -5   5   0  356.89  115.67
   5  -5   1  463.30  140.60
   5  -5   1  384.05  140.28
   5  -5   1  410.66  138.80
   5  -5   1  458.30  138.77
  -5   5  -1  323.71  140.19
  -5   5  -1  383.66  140.53
  -5   5  -1  495.10  138.90
  -5   5  -1  441.07  138.79
   5  -5   2  171.03   45.33
   5  -5   2  112.54   44.87
   5  -5   2  133.16   44.17
   5  -5   2  123.19   44.01
  -5   5  -2  133.26   44.84
  -5   5  -2  152.77   45.47
  -5   5  -2  147.93   44.17
  -5   5  -2  115.06   44.08
   5  -5   3 1524.92  507.54
   5  -5   3 1310.30  507.48
   5  -5   3 1425.30  502.84
   5  -5   3 1535.56  502.83
  -5   5  -3 1395.16  507.39
  -5   5  -3 1596.54  507.66
  -5   5  -3 1640.77  502.90
  -5   5  -3 1732.69  502.87
   5  -5   4    8.52    5.59
   5  -5   4    5.51    5.29
   5  -5   4   11.94    5.77
  -5   5  -4    6.70    4.97
  -5   5  -4    7.32    6.06
  -5   5  -4   13.28    5.60
  -5   5  -4   10.55    5.67
   5  -5   5    2.65    1.82
   5  -5   5    4.40    5.65
   5  -5   5    5.91    4.46
   5  -5   5    3.08    5.25
  -5   5  -5    2.10    5.07
  -5   5  -5    7.70    6.44
  -5   5  -5    6.66    5.13
   5  -5   6 4552.83  990.30
   5  -5   6 1980.38  989.61
   5  -5   6 4097.77  981.17
   5  -5   6 2398.87  980.98
  -5   5  -6 2094.92  989.53
  -5   5  -6 3438.72  990.19
  -5   5  -6 3523.24  981.30
  -5   5  -6 2785.61  981.08
  -5   5  -7   72.41    2.48
   5  -5   7   66.55   19.70
   5  -5   7   67.39   19.37
   5  -5   7   34.31   18.40
  -5   5  -7   72.47   20.48
  -5   5  -7   31.13   19.30
   5  -5   8  462.23   50.72
   5  -5   8  546.40  130.61
   5  -5   8  274.92  129.91
  -5   5  -8  511.02  132.32
  -5   5  -8  290.05  130.13
   5  -5   9  309.16  100.33
  -5   5  -9  284.39  100.46
   5  -5  10  740.80  247.61
  -5   5 -10  740.46  247.73
   5  -5  11   57.79   21.83
  -5   5 -11   55.98   22.76
   5  -5  12    3.86   10.88
  -5   5 -12   -0.24   10.55
   5  -4   0  375.97  141.84
   5  -4   0  435.56  140.23
   5  -4   0  497.92  140.27
  -5   4   0  381.35  141.63
  -5   4   0  340.76  141.85
  -5   4   0  462.51  140.30
  -5   4   0  440.23  140.26
   5  -4   1  197.27   75.85
   5  -4   1  218.19   75.85
   5  -4   1  232.80   74.90
   5  -4   1  229.98   74.83
  -5   4  -1  200.24   75.72
  -5   4  -1  206.86   75.96
  -5   4  -1  236.01   74.89
  -5   4  -1  280.74   74.97
   5  -4   2  354.69   88.96
   5  -4   2  251.01   88.55
   5  -4   2  277.61   87.45
   5  -4   2  242.10   87.33
  -5   4  -2  251.00   88.45
  -5   4  -2  339.02   89.04
  -5   4  -2  229.70   87.39
  -5   4  -2  252.75   87.46
   5  -4   3   71.82   24.10
   5  -4   3   71.43   24.04
   5  -4   3   71.53   23.29
  -5   4  -3   57.75   23.92
  -5   4  -3   64.28   24.14
  -5   4  -3   70.62   23.39
  -5   4  -3   78.34   23.54
   5  -4   4  129.74   46.90
  -5   4  -4  138.91   46.81
  -5   4  -4  153.32   47.00
  -5   4  -4  155.85   46.11
  -5   4  -4  121.27   45.99
   5  -4   5  993.10  329.60
   5  -4   5  791.73  329.53
   5  -4   5 1398.89  326.54
  -5   4  -5  864.68  329.46
  -5   4  -5  970.37  329.72
  -5   4  -5 1015.15  326.49
  -5   4  -5  929.74  326.44
  -5   4  -6    0.78    0.93
   5  -4   6   19.80    7.33
   5  -4   6    2.19    6.88
   5  -4   6   18.18    6.73
   5  -4   6   18.12    7.70
  -5   4  -6   13.00    7.47
  -5   4  -6   12.56    9.18
  -5   4  -6   15.96    7.74
   5  -4   7 1627.24  271.87
   5  -4   7 2397.68  648.11
  -5   4  -7 1792.46  653.90
  -5   4  -7 2473.63  648.31
   5  -4   8    1.22    3.43
  -5   4  -8    0.90    4.57
   5  -4   9  674.17  240.29
  -5   4  -9  774.81  240.44
   5  -4  10  504.00  162.98
  -5   4 -10  468.51  163.00
   5  -4  11   -0.51    8.39
  -5   4 -11    1.33    9.32
   5  -4  12   20.77   12.97
  -5   4 -12   19.90   12.52
   5  -3   0 1122.39  314.94
   5  -3   0  887.06  314.73
   5  -3   0 1016.87  311.83
   5  -3   0  939.63  311.80
  -5   3   0  866.61  314.63
  -5   3   0 1098.61  315.09
  -5   3   0  818.59  311.79
  -5   3   0  962.10  311.83
   5  -3   1  321.32  116.05
   5  -3   1  363.36  114.76
   5  -3   1  299.27  114.69
  -5   3  -1  364.28  115.96
  -5   3  -1  464.45  116.42
  -5   3  -1  359.10  114.77
  -5   3  -1  318.83  114.75
   5  -3   2  413.70  131.77
   5  -3   2  382.98  131.67
   5  -3   2  337.36  130.15
   5  -3   2  408.48  130.20
  -5   3  -2  370.66  131.59
  -5   3  -2  441.97  131.98
  -5   3  -2  409.78  130.27
  -5   3  -2  426.86  130.26
   5  -3   3  890.37  286.59
   5  -3   3  792.91  286.67
   5  -3   3  829.35  283.82
   5  -3   3  928.40  283.80
  -5   3  -3  807.42  286.56
  -5   3  -3  833.66  286.71
  -5   3  -3  850.44  283.84
  -5   3  -3  924.75  283.91
   5  -3   4  199.23   60.51
   5  -3   4  151.08   60.61
   5  -3   4  169.32   59.69
   5  -3   4  183.50   59.56
  -5   3  -4  168.30   60.50
  -5   3  -4  208.67   60.73
  -5   3  -4  175.60   59.62
  -5   3  -4  181.22   59.77
   5  -3   5  255.73   44.51
  -5   3  -5  303.69   45.00
  -5   3  -5  276.04   44.47
   5  -3   5  412.92  115.72
   5  -3   5  370.42  114.35
  -5   3  -5  415.17  114.43
   5  -3   6  321.85   95.75
   5  -3   6  217.45   95.87
  -5   3  -6  228.21   95.74
  -5   3  -6  323.40   95.93
  -5   3  -6  383.65   94.78
  -5   3  -6  260.26   94.67
   5  -3   7  461.31   54.32
  -5   3  -7  347.30   53.61
   5  -3   8 1028.91  331.44
  -5   3  -8  949.55  331.55
   5  -3   9   13.91    9.20
  -5   3  -9   15.72    9.23
   5  -3  10  218.38   71.93
  -5   3 -10  206.34   71.95
   5  -3  11    6.47    6.92
  -5   3 -11    3.29    7.03
   5  -3  12  101.86   35.62
  -5   3 -12   97.53   35.56
   5  -2   0 1095.55  349.15
   5  -2   0 1078.71  349.24
   5  -2   0 1118.15  346.00
   5  -2   0  886.76  345.92
  -5   2   0 1105.42  349.17
  -5   2   0  995.62  349.24
  -5   2   0 1000.61  345.97
  -5   2   0 1139.41  346.01
   5  -2   1  742.07  226.83
   5  -2   1  746.87  226.92
   5  -2   1  728.66  224.65
   5  -2   1  637.58  224.57
  -5   2  -1  725.31  226.83
  -5   2  -1  658.02  226.89
  -5   2  -1  624.92  224.62
  -5   2  -1  593.71  224.61
   5  -2   2   40.20   14.05
   5  -2   2   36.91   14.37
   5  -2   2   37.61   13.68
   5  -2   2   51.43   13.64
  -5   2  -2   42.22   14.17
  -5   2  -2   37.02   14.15
  -5   2  -2   40.85   13.70
  -5   2  -2   30.07   13.65
   5  -2   3 2308.94  837.98
   5  -2   3 2609.35  838.17
   5  -2   3 2581.55  830.71
   5  -2   3 2444.61  830.66
  -5   2  -3 2587.09  838.07
  -5   2  -3 2487.45  838.09
  -5   2  -3 2686.49  830.72
  -5   2  -3 2526.63  830.73
   5  -2   4  323.45   94.97
   5  -2   4  283.57   95.11
   5  -2   4  293.51   93.81
   5  -2   4  220.72   93.65
  -5   2  -4  293.01   95.05
  -5   2  -4  287.57   95.04
  -5   2  -4  290.01   93.77
  -5   2  -4  291.54   93.90
   5  -2   5 1296.78  453.74
   5  -2   5 1129.02  453.85
   5  -2   5 1303.59  449.56
   5  -2   5 1609.30  449.54
  -5   2  -5 1061.73  453.80
  -5   2  -5 1299.16  453.84
  -5   2  -5 1642.09  449.60
  -5   2  -5 1602.65  449.79
   5  -2   6    4.82    4.61
  -5   2  -6    4.11    4.92
   5  -2   7  476.02  165.86
  -5   2  -7  521.61  166.02
   5  -2   8    1.70    3.00
  -5   2  -8    4.72    6.81
   5  -2   9   45.32   16.77
  -5   2  -9   39.40   17.03
   5  -2  10   21.67   12.11
  -5   2 -10   25.47   12.04
   5  -2  11   56.25   24.08
  -5   2 -11   76.17   25.23
   5  -1   0   19.97    7.25
   5  -1   0   22.72    7.62
   5  -1   0   16.86    7.28
   5  -1   0   21.73    7.24
  -5   1   0   19.94    7.29
  -5   1   0   18.37    7.58
  -5   1   0   18.45    7.18
  -5   1   0   15.89    7.34
   5  -1   1  106.56   39.02
   5  -1   1  153.82   39.26
   5  -1   1  111.11   38.47
   5  -1   1  113.24   38.37
  -5   1  -1  103.52   39.03
  -5   1  -1  101.91   39.13
  -5   1  -1  124.45   38.51
   5  -1   2  260.61   88.56
   5  -1   2  273.11   88.73
   5  -1   2  295.25   87.56
   5  -1   2  269.39   87.46
  -5   1  -2  253.66   88.60
  -5   1  -2  282.04   88.75
  -5   1  -2  217.67   87.52
   5  -1   3    4.79    3.76
   5  -1   3    3.03    4.92
   5  -1   3    4.99    6.28
   5  -1   3    2.50    3.17
  -5   1  -3    2.67    3.89
  -5   1  -3    5.32    4.48
  -5   1  -3    5.77    5.39
   5  -1   4 5486.90 1748.88
   5  -1   4 5315.29 1749.05
   5  -1   4 4965.75 1733.89
   5  -1   4 5286.83 1733.84
  -5   1  -4 4383.80 1748.88
  -5   1  -4 5367.33 1749.01
  -5   1  -4 6341.78 1734.06
   5  -1   5    4.19    1.81
   5  -1   5    1.66    6.13
  -5   1  -5    4.72    5.28
  -5   1  -5    5.97    4.27
   5  -1   6  460.05  146.93
  -5   1  -6  414.41  147.01
   5  -1   7 1246.53  421.51
  -5   1  -7 1287.63  421.62
   5  -1   8  279.54   99.80
  -5   1  -8  316.98  100.03
   5  -1   9   71.93   24.80
  -5   1  -9   67.01   25.17
   5  -1  10   87.48   30.57
  -5   1 -10   83.64   30.73
   5  -1  11   77.74   34.27
  -5   1 -11  111.96   35.36
   5   0   0  282.51  111.05
   5   0   0  337.73  111.17
   5   0   0  410.99  110.03
   5   0   0  373.61  109.91
  -5   0   0  290.00  111.18
  -5   0   0  317.21  109.89
  -5   0   0  330.88  110.01
   5   0   1    7.16    3.67
   5   0   1    3.01    4.03
   5   0   1   15.99    4.25
   5   0   1    3.59    3.30
  -5   0  -1    6.32    3.95
  -5   0  -1    4.84    4.12
  -5   0  -1    3.31    4.08
  -5   0  -1    5.71    5.04
   5   0   2   10.78    3.43
   5   0   2    0.99    4.03
   5   0   2    0.17    5.03
   5   0   2    0.84    3.67
  -5   0  -2    1.19    4.10
  -5   0  -2    6.59    4.11
  -5   0  -2    0.83    3.52
  -5   0  -2    1.01    5.33
   5   0   3 2154.61  720.68
   5   0   3 1985.47  720.86
   5   0   3 2241.78  714.35
   5   0   3 2408.12  714.28
  -5   0  -3 2177.05  720.81
  -5   0  -3 2027.19  720.78
  -5   0  -3 2158.72  714.27
  -5   0  -3 2036.59  714.45
   5   0   4  465.78  154.25
   5   0   4  455.89  154.59
   5   0   4  402.86  152.58
   5   0   4  489.93  152.47
  -5   0  -4  505.73  154.58
  -5   0  -4  445.64  154.36
  -5   0  -4  450.39  152.48
  -5   0  -4  449.81  152.86
   5   0   5  180.69   62.52
  -5   0  -5  191.27   62.74
   5   0   6  322.84  102.59
  -5   0  -6  283.75  102.69
   5   0   7   15.10    8.49
  -5   0  -7   15.91    9.15
   5   0   8   15.02    8.92
  -5   0  -8   16.08    9.33
   5   0   9   26.13   11.45
  -5   0  -9   22.22   12.02
   5   0  10   10.93    9.43
  -5   0 -10    3.62    7.41
   5   1   0 1712.68  572.38
   5   1   0 1845.10  572.53
   5   1   0 1739.22  567.39
   5   1   0 1583.23  567.31
  -5  -1   0 1606.17  572.51
  -5  -1   0 1810.70  567.33
  -5  -1   0 1742.38  567.45
   5   1   1    5.36    3.57
   5   1   1    6.36    4.19
   5   1   1    3.85    6.03
   5   1   1    4.66    3.79
  -5  -1  -1    5.16    3.97
  -5  -1  -1    5.03    4.06
  -5  -1  -1    3.42    5.76
   5   1   2 2651.02  775.50
   5   1   2 2480.17  775.77
   5   1   2 2440.23  768.83
   5   1   2 1810.95  768.59
  -5  -1  -2 2388.62  775.58
  -5  -1  -2 2396.71  768.68
  -5  -1  -2 2106.01  768.87
   5   1   3   69.28    4.03
   5   1   3   61.52   23.29
  -5  -1  -3   72.51   23.65
  -5  -1  -3   72.00   23.00
  -5  -1  -3   58.65   23.96
   5   1   4  247.26   73.30
   5   1   4  174.55   72.34
   5   1   4  236.37   72.24
  -5  -1  -4  228.31   73.48
  -5  -1  -4  160.52   72.67
   5   1   5  165.53   21.31
  -5  -1  -5  190.83   20.89
   5   1   6   93.89   31.91
  -5  -1  -6   89.19   32.16
   5   1   7  113.67   38.54
  -5  -1  -7  107.80   38.67
   5   1   8  529.45  170.35
  -5  -1  -8  484.83  170.42
   5   1   9   13.74   10.88
  -5  -1  -9    8.03   10.42
   5   2   0  315.34  100.20
   5   2   0  278.04  100.46
   5   2   0  260.14   99.19
   5   2   0  287.46   99.04
  -5  -2   0  342.55  100.38
  -5  -2   0  311.33   99.11
  -5  -2   0  273.91   99.42
   5   2   1 5312.36  700.47
   5   2   1 5338.87 1674.22
   5   2   1 5235.01 1660.08
   5   2   1 4410.48 1659.91
  -5  -2  -1 4820.84 1674.33
  -5  -2  -1 5148.47 1659.94
   5   2   2  437.18  148.12
   5   2   2  412.05  147.02
   5   2   2  464.33  146.71
  -5  -2  -2  420.02  148.26
  -5  -2  -2  457.76  146.60
  -5  -2  -2  479.38  147.32
   5   2   3  217.41   65.10
   5   2   3  176.10   64.56
   5   2   3  193.00   64.30
  -5  -2  -3  192.11   65.22
  -5  -2  -3  157.18   64.78
   5   2   4  381.96   87.28
   5   2   4  126.01   85.73
   5   2   4  242.14   85.98
  -5  -2  -4  352.71   87.47
  -5  -2  -4  172.66   86.25
   5   2   5 1086.59  366.28
  -5  -2  -5 1114.91  366.46
   5   2   6   16.59    9.52
  -5  -2  -6   25.94   10.65
   5   2   7   58.51   23.08
  -5  -2  -7   69.13   23.66
   5   2   8  242.71   85.64
  -5  -2  -8  264.66   85.87
   5   3   0 1642.49  523.86
   5   3   0 1689.05  524.30
   5   3   0 1537.22  519.36
   5   3   0 1516.84  519.18
  -5  -3   0 1460.92  523.97
  -5  -3   0 1567.05  519.19
  -5  -3   0 1651.57  519.58
   5   3   1   37.29   13.43
   5   3   1   30.85   14.77
   5   3   1   25.00   15.82
   5   3   1   38.74   13.84
  -5  -3  -1   41.11   13.79
  -5  -3  -1   48.25   17.19
   5   3   2  364.48   96.19
   5   3   2  189.03   95.27
   5   3   2  318.88   95.25
  -5  -3  -2  299.16   96.28
  -5  -3  -2  289.92   95.17
  -5  -3  -2  168.51   95.42
   5   3   3  219.48   35.77
   5   3   3   10.10   34.63
   5   3   3   47.71   34.88
  -5  -3  -3  226.96   36.13
  -5  -3  -3   20.83   34.74
  -5  -3  -3   11.31   35.74
   5   3   4   31.15    9.16
   5   3   4   10.03   10.03
   5   3   4    2.50    8.02
  -5  -3  -4   27.23    9.71
   5   3   5   59.57    4.72
  -5  -3  -5   59.06    4.39
   5   3   6    4.29    6.45
  -5  -3  -6    2.78    8.08
   5   3   7    3.92    7.31
  -5  -3  -7   -1.58    8.35
   5   4   0  214.51   65.58
   5   4   0  198.71   64.87
  -5  -4   0  212.30   65.76
  -5  -4   0  174.78   64.73
  -5  -4   0  144.31   65.58
  -5  -4  -1  428.29   54.39
   5   4   1  505.03  139.39
   5   4   1  271.11  137.99
   5   4   1  471.70  138.12
  -5  -4  -1  455.43  137.99
  -5  -4  -1  272.93  138.09
   5   4   2 1498.17  454.41
   5   4   2 1228.38  450.40
  -5  -4  -2 1651.60  454.66
  -5  -4  -2 1069.31  450.22
   5   4   3    4.90    6.51
   5   4   3    7.86   10.46
  -5  -4  -3   10.63    8.02
  -5  -4  -3    0.45    9.93
   5   4   4   90.15    9.27
  -5  -4  -4   84.74    8.80
   5   4   5  625.92  219.18
  -5  -4  -5  692.80  219.46
   5   4   6  260.32   88.29
  -5  -4  -6  262.26   88.63
   5   5   0  802.10  282.09
   5   5   0  908.66  279.68
  -5  -5   0  867.23  282.29
  -5  -5   0  822.08  279.65
   5   5   1    2.13    7.10
   5   5   1    2.18   11.35
  -5  -5  -1    4.09    9.19
  -5  -5  -1    0.09    8.86
   5   5   2  461.60  134.20
   5   5   2  305.61  133.29
  -5  -5  -2  496.38  134.46
  -5  -5  -2  315.15  133.11
   5   5   3   35.49   13.81
   5   5   3   16.60   19.07
  -5  -5  -3   45.27   14.94
   5   5   4   49.16   19.52
  -5  -5  -4   56.11   20.04
   5   5   5    7.79    7.50
  -5  -5  -5    9.00    8.85
   5   6   0   25.82   15.22
   5   6   0   41.30   24.28
  -5  -6   0   47.35   16.99
  -5  -6   0   32.36   16.39
   5   6   1   86.36   27.23
   5   6   1   65.95   29.67
  -5  -6  -1   88.76   28.21
  -5  -6  -1   53.28   27.88
   5   6   2  131.07   35.02
   5   6   2   86.71   40.09
  -5  -6  -2  168.80   35.79
  -5  -6  -2   -1.10   35.94
   5   6   3   87.23    9.59
  -5  -6  -3   95.79    9.48
   5   6   4   46.83   18.76
  -5  -6  -4   37.85   18.65
   5   7   0  201.84   56.46
   5   7   0  217.74   62.06
  -5  -7   0  230.05   57.14
  -5  -7   0    3.15   54.75
   5   7   1   19.04   10.79
   5   7   1    8.36   22.74
  -5  -7  -1   27.27   12.99
  -5  -7  -1   -0.74   16.05
   5   7   2   60.20   23.83
  -5  -7  -2   60.14   25.03
   5   7   3  189.13   23.14
  -5  -7  -3  177.20   22.30
   5   8   0   -0.57   10.29
  -5  -8   0    3.31   12.84
   5   8   1    2.53   12.26
  -5  -8  -1   -1.69   14.26
   6 -14   2   48.25   23.72
  -6  14  -2   47.19   33.38
   6 -14   3    5.73   15.80
  -6  14  -3   20.63   27.03
   6 -14   4   20.64   18.07
  -6  14  -4   34.44   28.42
   6 -14   5   41.35   24.09
  -6  14  -5   64.33   33.13
   6 -14   6   -2.32   35.90
   6 -14   6   68.58   26.17
  -6  14  -6   74.17   34.71
   6 -14   7   66.23   32.38
  -6  14  -7   94.90   51.38
   6 -13   0   29.95   18.45
  -6  13   0   40.98   26.10
   6 -13   1   -1.11   41.02
   6 -13   1   66.37   24.92
  -6  13  -1  101.67   32.28
   6 -13   2    1.49   11.76
  -6  13  -2   -3.19   21.13
   6 -13   3    1.24   25.29
   6 -13   3    5.44   11.51
  -6  13  -3    6.83   20.25
   6 -13   4   -2.22   84.24
   6 -13   4  326.78   81.54
  -6  13  -4  275.49   83.96
   6 -13   5   13.07  164.39
   6 -13   5  552.48  162.23
  -6  13  -5  804.97  165.14
   6 -13   6  306.63   82.14
   6 -13   6  201.55   74.99
  -6  13  -6  164.76   78.60
   6 -13   7 1567.84  502.94
   6 -13   7 1567.42  497.00
  -6  13  -7 1315.89  498.10
   6 -13   8  266.39   72.44
   6 -13   8  257.71   69.72
  -6  13  -8    2.15   69.22
   6 -13   9   21.66   30.67
   6 -13   9    0.75   23.25
   6 -12   0   10.02   28.39
   6 -12   0   -1.45    9.57
  -6  12   0    3.50   16.15
   6 -12   1    3.22  146.35
   6 -12   1  531.65  143.04
  -6  12  -1  540.05  144.14
   6 -12   2    5.10   20.20
   6 -12   2    3.79    8.94
  -6  12  -2    4.56   14.66
   6 -12   3  102.75   37.41
   6 -12   3   79.08   31.78
  -6  12  -3  101.20   34.41
   6 -12   4  208.82   61.19
   6 -12   4  144.17   55.86
  -6  12  -4  164.14   57.48
   6 -12   5   86.53   37.82
   6 -12   5   75.61   31.83
  -6  12  -5  116.81   34.93
   6 -12   6 2414.47  672.37
   6 -12   6 1775.18  664.87
  -6  12  -6 2033.92  665.73
   6 -12   7  128.41   42.18
   6 -12   7  103.01   37.57
  -6  12  -7   81.13   41.78
   6 -12   8  319.19  104.66
   6 -12   8  474.01  103.49
  -6  12  -8  -19.44  103.73
   6 -12   9  230.65   83.32
   6 -12   9  247.87   83.78
   6 -12  10  185.09   23.05
   6 -11   0    9.52   11.62
  -6  11   0   10.27   15.05
   6 -11   1   67.92   31.17
   6 -11   1   81.04   26.95
  -6  11  -1   63.22   28.44
   6 -11   2  127.11   44.90
   6 -11   2  120.96   42.06
  -6  11  -2  117.44   43.21
   6 -11   3  574.68  187.16
   6 -11   3  559.32  183.48
  -6  11  -3  523.88  184.01
   6 -11   4  224.79   80.44
   6 -11   4  230.40   77.43
  -6  11  -4  238.57   78.32
   6 -11   5  203.30   60.95
   6 -11   5  170.50   58.52
  -6  11  -5  153.20   59.50
   6 -11   6   -0.32   15.13
   6 -11   6    1.83    8.68
  -6  11  -6   -0.35   13.68
   6 -11   7  600.57  191.44
   6 -11   7  498.13  188.76
  -6  11  -7  647.24  190.17
   6 -11   8  679.41  198.18
  -6  11  -8  426.19  196.80
   6 -11   9    0.09   14.12
   6 -11   9    3.52   20.48
  -6  11  -9    2.56   24.62
   6 -11  10  294.50   79.81
   6 -11  10  272.56   81.09
  -6  11 -10   13.87   86.12
   6 -11  11   75.47   34.95
   6 -10   0   52.90   27.95
   6 -10   0   61.92   23.30
  -6  10   0   78.97   26.23
   6 -10   1  110.86   41.89
   6 -10   1  107.04   39.31
  -6  10  -1  135.39   41.12
   6 -10   2 2566.19  846.19
   6 -10   2 2560.90  837.96
  -6  10  -2 2480.93  838.29
   6 -10   3  160.51   60.11
   6 -10   3  178.67   58.53
  -6  10  -3  176.50   59.37
   6 -10   4  889.54  298.86
   6 -10   4  904.89  295.39
  -6  10  -4  877.82  295.79
   6 -10   5  376.00  116.42
   6 -10   5  326.77  114.35
  -6  10  -5  331.86  114.94
   6 -10   6  259.94   93.79
   6 -10   6  286.73   92.06
  -6  10  -6  277.16   93.14
   6 -10   7  330.67  108.75
   6 -10   7  301.48  106.65
  -6  10  -7  337.89  108.39
   6 -10   8   22.16   16.56
   6 -10   8   31.60   16.52
  -6  10  -8   23.33   23.18
   6 -10   9    3.92    7.77
   6 -10   9    3.12   17.84
  -6  10  -9   -6.49   22.64
   6 -10  10  464.29  110.15
  -6  10 -10   16.74  113.30
   6 -10  11  166.77   61.08
   6 -10  12   56.58   26.59
   6  -9   0   13.41   13.82
   6  -9   0   10.53    8.86
  -6   9   0   10.93   10.56
   6  -9   1  990.92  197.56
   6  -9   1  301.35  196.32
   6  -9   1  859.35  194.60
  -6   9  -1  252.41  196.03
  -6   9  -1  864.97  194.91
   6  -9   2   24.11   15.17
   6  -9   2   31.94   13.64
  -6   9  -2   44.11   15.63
   6  -9   3 1752.84  572.16
   6  -9   3 1675.05  566.43
  -6   9  -3 1763.38  566.73
   6  -9   4   69.34   27.55
   6  -9   4   66.59   26.36
  -6   9  -4   98.82   28.44
   6  -9   5 1448.41  538.03
   6  -9   5 1478.84  532.72
  -6   9  -5 2020.80  533.31
   6  -9   6  470.48  167.01
   6  -9   6  507.43  164.86
  -6   9  -6  514.65  165.34
   6  -9   7   31.86   18.69
   6  -9   7   53.16   18.48
  -6   9  -7   34.54   18.45
  -6   9  -7   43.13   22.40
   6  -9   8  116.85   14.07
   6  -9   8  154.23   47.40
  -6   9  -8  123.94   48.08
  -6   9  -8  145.04   51.46
   6  -9   9  113.79   30.87
  -6   9  -9   99.28   32.22
  -6   9  -9  -11.15   36.92
   6  -9  10  107.04   33.83
  -6   9 -10  124.84   35.28
  -6   9 -10   -9.43   49.26
   6  -9  11    6.80   13.84
  -6   9 -11   -3.56   16.23
   6  -9  12   25.78   19.24
  -6   9 -12    6.08   28.50
   6  -8   0  595.40  133.72
   6  -8   0  255.57  132.79
   6  -8   0  538.82  131.44
   6  -8   0  378.57  131.46
  -6   8   0  212.45  132.52
  -6   8   0  480.36  131.48
  -6   8   0  402.21  131.45
   6  -8   1   25.67   10.88
   6  -8   1   19.99   13.20
   6  -8   1   35.24    9.27
   6  -8   1   14.96   10.18
  -6   8  -1   14.32   10.26
  -6   8  -1   26.49    9.52
  -6   8  -1   15.67    9.95
   6  -8   2   78.40   22.00
   6  -8   2   81.83   20.10
   6  -8   2   52.07   20.48
  -6   8  -2   29.40   20.13
  -6   8  -2   76.26   20.31
  -6   8  -2   42.68   20.22
   6  -8   3  245.43   58.89
   6  -8   3   91.34   57.80
   6  -8   3  284.62   57.30
   6  -8   3  160.62   57.33
  -6   8  -3   92.78   57.62
  -6   8  -3  258.86   57.58
  -6   8  -3  135.07   57.11
   6  -8   4 2382.36  537.46
   6  -8   4  956.31  536.64
   6  -8   4 2521.53  532.13
   6  -8   4 1497.80  532.03
  -6   8  -4  945.76  536.58
  -6   8  -4 2137.76  532.29
  -6   8  -4 1212.31  531.87
   6  -8   5  111.38   40.73
   6  -8   5  100.48   38.37
  -6   8  -5  146.63   41.39
  -6   8  -5  118.79   39.50
   6  -8   6  160.02   16.76
   6  -8   6  150.51   51.75
  -6   8  -6  151.54   53.26
  -6   8  -6  152.98   52.30
   6  -8   7  379.24  133.57
   6  -8   7  425.66  131.92
  -6   8  -7  390.48  133.86
  -6   8  -7  381.29  132.40
   6  -8   8  130.75   45.80
   6  -8   8  128.71   45.30
  -6   8  -8  122.60   46.48
  -6   8  -8  143.86   49.27
   6  -8   9  242.17   82.73
   6  -8   9  211.24   82.60
  -6   8  -9  267.87   83.29
   6  -8  10  237.01   21.76
  -6   8 -10  250.79   22.28
   6  -8  10   78.73   64.51
  -6   8 -10  118.61   68.49
   6  -8  11  232.83   80.66
  -6   8 -11  236.02   81.36
   6  -8  12  302.55   35.11
  -6   8 -12  259.26   97.50
   6  -7   0   38.97   15.80
   6  -7   0   32.36   16.57
   6  -7   0   22.79   14.38
   6  -7   0   58.70   14.31
  -6   7   0   32.57   15.22
  -6   7   0   61.94   14.69
  -6   7   0   26.97   14.42
   6  -7   1  633.37  203.84
   6  -7   1  599.19  201.60
   6  -7   1  748.46  201.59
  -6   7  -1  444.03  203.40
  -6   7  -1  770.60  201.70
  -6   7  -1  499.39  201.50
   6  -7   2    6.81   10.39
   6  -7   2    3.93    6.00
   6  -7   2    8.62    5.62
   6  -7   2    7.20    4.89
  -6   7  -2    1.32    4.98
  -6   7  -2    9.07    5.31
   6  -7   3  885.39  255.58
   6  -7   3  533.76  255.03
   6  -7   3  951.99  252.70
   6  -7   3  838.84  252.72
  -6   7  -3  462.69  254.91
  -6   7  -3 1017.92  255.84
  -6   7  -3  832.94  252.71
  -6   7  -3  789.87  252.64
   6  -7   4   93.31   23.92
   6  -7   4   46.12   22.47
   6  -7   4   80.51   21.65
   6  -7   4   49.40   21.70
  -6   7  -4   39.23   21.88
  -6   7  -4   76.69   24.26
  -6   7  -4   79.67   21.99
  -6   7  -4   50.00   21.55
   6  -7   5  131.59   30.59
   6  -7   5   47.31   29.19
   6  -7   5  127.21   28.78
   6  -7   5   61.16   29.06
  -6   7  -5   45.50   29.04
  -6   7  -5  116.87   31.40
  -6   7  -5  103.64   29.34
  -6   7  -5   59.13   28.74
   6  -7   6   11.56    9.66
   6  -7   6    8.95    9.42
   6  -7   6   -2.72    7.29
  -6   7  -6   11.16   11.43
  -6   7  -6   13.75   13.19
  -6   7  -6    5.65    7.46
   6  -7   7  231.48   84.79
   6  -7   7  274.55   83.93
  -6   7  -7  241.54   85.15
   6  -7   8  144.72   56.83
   6  -7   8  153.19   56.80
  -6   7  -8  183.65   57.48
  -6   7  -8  195.99   59.29
   6  -7   9    7.84   11.00
   6  -7   9    7.70   16.86
  -6   7  -9   11.39   12.99
   6  -7  10  111.95   40.95
  -6   7 -10  117.59   41.67
   6  -7  11  642.58  214.46
  -6   7 -11  635.50  214.69
   6  -7  12   36.71   21.64
  -6   7 -12   28.67   26.70
   6  -6   0 3439.04 1187.50
   6  -6   0 3306.70 1187.33
   6  -6   0 3788.82 1177.19
   6  -6   0 3590.99 1177.07
  -6   6   0 3000.17 1187.21
  -6   6   0 4049.69 1177.20
  -6   6   0 3815.31 1177.19
   6  -6   1   13.54    8.11
   6  -6   1   11.03    6.32
   6  -6   1   10.45    6.18
   6  -6   1   10.44    5.11
  -6   6  -1    9.64    6.12
  -6   6  -1   13.16    5.73
  -6   6  -1   11.93    6.07
   6  -6   2 1380.83  417.27
   6  -6   2  917.84  416.91
   6  -6   2 1049.69  413.07
   6  -6   2 1470.40  413.11
  -6   6  -2 1031.95  416.84
  -6   6  -2 1273.34  417.30
  -6   6  -2 1505.25  413.19
  -6   6  -2 1316.09  413.13
   6  -6   3 1791.91  579.57
   6  -6   3 1383.84  579.25
   6  -6   3 1593.07  574.05
   6  -6   3 1564.63  573.97
  -6   6  -3 1697.42  579.17
  -6   6  -3 1860.48  579.62
  -6   6  -3 2242.56  574.19
  -6   6  -3 1864.59  574.10
   6  -6   4   41.55   15.08
   6  -6   4   31.76   14.97
   6  -6   4   55.17   14.27
   6  -6   4   34.29   14.35
  -6   6  -4   31.39   14.61
  -6   6  -4   46.42   16.19
  -6   6  -4   43.45   14.24
  -6   6  -4   34.51   14.81
   6  -6   5   97.78    8.72
   6  -6   5   65.30   31.42
   6  -6   5  103.14   30.79
  -6   6  -5   71.19   31.29
  -6   6  -5  101.48   32.12
  -6   6  -5   99.13   31.09
  -6   6  -5  103.05   31.44
   6  -6   6  218.43   68.54
  -6   6  -6  218.82   68.65
  -6   6  -6  245.21   67.97
  -6   6  -6  144.98   67.49
   6  -6   7   48.24   19.33
   6  -6   7   69.13   19.35
   6  -6   7   20.28   18.85
  -6   6  -7   74.28   20.12
  -6   6  -7   72.85   22.40
  -6   6  -7   44.04   20.08
   6  -6   8  222.94   28.94
   6  -6   8  230.76   79.17
  -6   6  -8  216.15   79.67
  -6   6  -8  311.04   81.43
   6  -6   9    2.54    8.12
  -6   6  -9    3.32    9.39
   6  -6  10  615.31  198.37
  -6   6 -10  567.56  198.44
   6  -6  11  532.57  178.92
  -6   6 -11  534.69  179.08
   6  -6  12   73.36    9.79
  -6   6 -12   78.99   11.98
   6  -5   0  707.08  241.54
   6  -5   0  683.02  239.00
   6  -5   0  736.14  238.92
  -6   5   0  730.97  241.24
  -6   5   0  695.97  241.65
  -6   5   0  720.72  238.99
  -6   5   0  768.37  239.05
   6  -5   1 1118.37  398.64
   6  -5   1  941.66  398.44
   6  -5   1 1239.77  394.84
   6  -5   1 1260.29  394.77
  -6   5  -1 1072.74  398.36
  -6   5  -1 1209.76  398.75
  -6   5  -1 1381.59  394.92
  -6   5  -1 1308.18  394.89
   6  -5   2  208.56   71.99
   6  -5   2  204.41   71.93
   6  -5   2  222.78   71.05
   6  -5   2  215.46   70.86
  -6   5  -2  215.56   71.88
  -6   5  -2  210.64   72.27
  -6   5  -2  218.05   70.99
  -6   5  -2  211.26   71.10
   6  -5   3   83.73   25.22
   6  -5   3   68.15   25.12
   6  -5   3   81.18   24.56
   6  -5   3   58.41   24.18
  -6   5  -3   68.88   25.04
  -6   5  -3   83.96   25.37
  -6   5  -3   76.82   24.41
  -6   5  -3   67.51   24.59
   6  -5   4   70.61   18.51
   6  -5   4   43.55   17.87
   6  -5   4   36.76   17.12
   6  -5   4   59.43   17.27
  -6   5  -4   43.98   17.65
  -6   5  -4   67.13   18.73
  -6   5  -4   43.96   17.38
  -6   5  -4   48.42   17.27
   6  -5   5  208.13   62.25
   6  -5   5  128.19   61.71
   6  -5   5  245.55   61.20
   6  -5   5  165.92   60.88
  -6   5  -5  131.80   61.60
  -6   5  -5  242.61   62.47
  -6   5  -5  217.35   61.18
  -6   5  -5  175.90   61.24
   6  -5   6   36.95   13.99
   6  -5   6   32.77   12.87
   6  -5   6   20.66   13.70
  -6   5  -6   45.79   14.12
  -6   5  -6   46.60   14.69
  -6   5  -6   31.17   14.00
   6  -5   7  182.42   53.16
   6  -5   7  193.19   52.75
  -6   5  -7  193.24   53.35
  -6   5  -7   57.83   51.68
   6  -5   8   92.56   24.40
   6  -5   8   35.43   25.06
  -6   5  -8   91.27   25.33
  -6   5  -8   29.53   26.02
   6  -5   9 1172.71  153.83
  -6   5  -9 1088.52  377.33
   6  -5  10   18.22   12.61
  -6   5 -10   25.30   14.51
   6  -5  11  655.01  220.55
  -6   5 -11  662.40  220.66
   6  -4   0  371.23  140.14
   6  -4   0  378.98  140.00
   6  -4   0  425.63  138.59
   6  -4   0  437.24  138.58
  -6   4   0  417.65  139.95
  -6   4   0  416.72  140.30
  -6   4   0  507.29  138.72
  -6   4   0  397.71  138.59
   6  -4   1   94.85   27.64
   6  -4   1   70.25   27.25
   6  -4   1   73.07   26.60
   6  -4   1   85.59   26.63
  -6   4  -1   70.56   27.06
  -6   4  -1   94.68   27.90
  -6   4  -1   89.14   26.76
  -6   4  -1   76.01   26.68
   6  -4   2   26.24    9.69
   6  -4   2   22.97    9.37
   6  -4   2   29.31    8.94
   6  -4   2   23.48    8.57
  -6   4  -2   21.20    9.47
  -6   4  -2   24.75   10.03
  -6   4  -2   23.35    8.74
  -6   4  -2   20.94    9.16
   6  -4   3  238.95   87.15
   6  -4   3  250.54   87.28
   6  -4   3  281.64   86.23
   6  -4   3  255.62   86.01
  -6   4  -3  254.82   87.12
  -6   4  -3  263.59   87.33
  -6   4  -3  276.16   86.15
   6  -4   4  555.46  170.44
   6  -4   4  509.42  170.45
   6  -4   4  563.47  168.61
  -6   4  -4  390.90  170.25
  -6   4  -4  531.01  170.54
  -6   4  -4  527.41  168.55
  -6   4  -4  507.86  168.66
   6  -4   5  170.02   43.99
   6  -4   5   97.69   43.98
   6  -4   5  124.38   43.38
  -6   4  -5  107.57   43.80
  -6   4  -5  151.73   44.16
  -6   4  -5  149.58   43.47
  -6   4  -5   94.88   43.06
   6  -4   6    1.26    5.11
   6  -4   6    1.27    5.19
   6  -4   6    0.88    6.47
  -6   4  -6    3.23    4.34
  -6   4  -6   -1.02    8.08
  -6   4  -6    0.58    9.51
   6  -4   7  477.35  135.06
   6  -4   7  409.30  133.59
   6  -4   7  259.46  133.41
  -6   4  -7  434.68  135.14
  -6   4  -7  352.28  134.24
   6  -4   8  725.00  241.09
  -6   4  -8  719.94  241.18
   6  -4   9  191.88   65.77
  -6   4  -9  197.63   65.90
   6  -4  10  179.00   58.90
  -6   4 -10  166.25   58.94
   6  -4  11   25.42   13.78
  -6   4 -11   27.97   14.41
   6  -3   0 1843.29  625.93
   6  -3   0 1898.73  620.38
   6  -3   0 1774.21  620.34
  -6   3   0 1579.27  625.81
  -6   3   0 1671.75  625.99
  -6   3   0 2353.21  620.47
  -6   3   0 2036.83  620.44
   6  -3   1  570.94  195.17
   6  -3   1  556.62  193.16
   6  -3   1  508.23  193.09
  -6   3  -1  621.52  195.11
  -6   3  -1  719.77  195.55
  -6   3  -1  629.14  193.19
  -6   3  -1  570.08  193.21
   6  -3   2  459.15  145.46
   6  -3   2  431.20  145.58
   6  -3   2  462.29  143.94
   6  -3   2  408.04  143.84
  -6   3  -2  414.55  145.44
  -6   3  -2  450.59  145.64
  -6   3  -2  433.54  143.94
   6  -3   3    7.77    4.54
   6  -3   3    7.73    5.72
   6  -3   3   10.46    6.14
   6  -3   3    4.56    4.02
  -6   3  -3    7.00    5.06
  -6   3  -3    6.23    4.97
  -6   3  -3    6.82    4.39
   6  -3   4  313.29  116.91
   6  -3   4  284.77  117.10
   6  -3   4  379.50  115.75
   6  -3   4  430.87  115.68
  -6   3  -4  303.19  117.01
  -6   3  -4  356.25  117.08
  -6   3  -4  342.56  115.69
  -6   3  -4  370.66  115.88
   6  -3   5  103.75   31.03
   6  -3   5   88.23   30.65
  -6   3  -5   61.62   31.25
  -6   3  -5  106.04   31.29
  -6   3  -5   93.73   30.71
  -6   3  -5   81.24   31.11
   6  -3   6  623.94  199.74
  -6   3  -6  621.12  199.92
  -6   3  -6  494.42  197.90
   6  -3   7 1110.44  358.86
  -6   3  -7 1033.09  358.99
   6  -3   8  133.94   15.67
  -6   3  -8  141.70   14.93
   6  -3   9   84.27   29.45
  -6   3  -9   84.02   29.51
   6  -3  10    2.17    6.66
  -6   3 -10   -0.43    6.57
   6  -3  11  110.95   12.83
  -6   3 -11  107.16   12.64
   6  -2   0  125.03   49.56
   6  -2   0  166.96   49.80
   6  -2   0  152.34   48.96
   6  -2   0  133.64   48.87
  -6   2   0  145.29   49.62
  -6   2   0  150.00   49.69
  -6   2   0  150.57   48.94
  -6   2   0  163.78   49.05
   6  -2   1  107.76   35.83
   6  -2   1  115.76   36.06
   6  -2   1  101.59   35.27
   6  -2   1  104.36   35.17
  -6   2  -1  111.41   35.87
  -6   2  -1   99.42   35.91
  -6   2  -1   91.90   35.21
  -6   2  -1  114.50   35.40
   6  -2   2    6.89    3.94
   6  -2   2    3.94    4.92
   6  -2   2    7.51    3.85
  -6   2  -2    2.56    4.13
  -6   2  -2    6.29    4.31
  -6   2  -2    5.05    3.85
  -6   2  -2    4.70    6.20
   6  -2   3  126.12   40.82
   6  -2   3  123.23   41.13
   6  -2   3  114.07   40.27
   6  -2   3  127.75   40.01
  -6   2  -3  116.11   41.01
  -6   2  -3  121.50   40.93
  -6   2  -3  108.37   40.10
  -6   2  -3  123.92   40.55
   6  -2   4  432.28  144.81
   6  -2   4  397.67  145.02
   6  -2   4  509.27  143.58
   6  -2   4  446.34  143.14
  -6   2  -4  374.20  144.93
  -6   2  -4  424.79  144.88
  -6   2  -4  423.89  143.20
  -6   2  -4  479.95  143.63
   6  -2   5   59.16   17.26
   6  -2   5   42.97   17.76
  -6   2  -5   39.19   17.27
  -6   2  -5   46.27   16.79
   6  -2   6  692.54  217.16
  -6   2  -6  601.07  217.21
   6  -2   7  321.23  106.01
  -6   2  -7  309.65  106.15
  -6   2  -8 1059.06  167.79
   6  -2   8 1353.93  407.66
   6  -2   9   33.28   14.63
  -6   2  -9   34.64   14.66
   6  -2  10  164.28   61.52
  -6   2 -10  197.19   62.14
   6  -1   0   13.79    6.10
   6  -1   0   17.55    6.45
   6  -1   0   15.42    6.38
   6  -1   0   13.41    6.16
  -6   1   0   14.39    6.35
  -6   1   0   13.74    6.76
  -6   1   0   14.35    6.23
  -6   1   0   16.16    6.61
   6  -1   1 1698.64  550.96
   6  -1   1 1675.52  551.09
   6  -1   1 1738.93  546.12
   6  -1   1 1526.69  546.00
  -6   1  -1 1588.26  551.03
  -6   1  -1 1590.44  551.06
  -6   1  -1 1735.35  546.06
  -6   1  -1 1707.88  546.13
   6  -1   2   16.14    7.42
   6  -1   2   15.56    8.01
   6  -1   2   23.68    8.73
   6  -1   2   15.35    6.76
  -6   1  -2   20.08    7.87
  -6   1  -2   20.86    7.96
  -6   1  -2   15.32    6.79
  -6   1  -2   18.62    8.54
   6  -1   3  689.31  243.90
   6  -1   3  682.40  244.17
   6  -1   3  762.94  241.51
  -6   1  -3  686.61  244.08
  -6   1  -3  828.94  244.12
  -6   1  -3  805.30  241.59
  -6   1  -3  612.49  241.69
   6  -1   4  404.17  135.01
   6  -1   4  330.39  135.34
   6  -1   4  363.76  133.68
   6  -1   4  447.77  133.54
  -6   1  -4  421.93  135.42
  -6   1  -4  409.89  135.18
  -6   1  -4  418.71  133.55
  -6   1  -4  387.06  134.02
   6  -1   5  550.35  150.72
   6  -1   5  332.18  148.97
  -6   1  -5  529.89  150.86
  -6   1  -5  352.76  148.81
  -6   1  -5  422.55  149.61
   6  -1   6  727.36  106.57
  -6   1  -6  847.46  261.66
   6  -1   7 1398.05  423.14
  -6   1  -7 1122.74  423.12
   6  -1   8   17.56    9.23
  -6   1  -8   18.01    9.85
   6  -1   9  871.12  286.08
  -6   1  -9  841.46  286.23
   6  -1  10  248.12   88.69
  -6   1 -10  276.39   89.21
   6   0   0  401.90  134.43
   6   0   0  436.95  134.64
   6   0   0  430.11  133.14
   6   0   0  355.81  132.95
  -6   0   0  394.59  134.57
  -6   0   0  424.50  133.28
   6   0   1   17.17    7.15
   6   0   1   13.80    7.68
   6   0   1   25.27    8.17
   6   0   1   16.62    7.40
  -6   0  -1   19.42    7.82
  -6   0  -1   15.64    7.25
  -6   0  -1   20.99    9.17
   6   0   2    8.30    4.39
   6   0   2    5.32    5.03
   6   0   2    5.14    4.86
  -6   0  -2    5.23    4.97
  -6   0  -2    8.68    8.92
   6   0   3  310.66  103.98
   6   0   3  276.03  104.31
   6   0   3  273.66  103.06
   6   0   3  321.18  102.76
  -6   0  -3  287.44  104.27
  -6   0  -3  300.02  104.11
  -6   0  -3  382.79  102.90
  -6   0  -3  317.44  103.35
   6   0   4  350.18   94.66
   6   0   4  211.91   93.75
   6   0   4  232.01   93.22
  -6   0  -4  325.12   94.83
   6   0   5  241.06   86.57
  -6   0  -5  278.10   86.85
   6   0   6  751.66  234.58
  -6   0  -6  642.59  234.65
   6   0   7   30.77   13.23
  -6   0  -7   32.14   13.67
   6   0   8   87.72    8.68
  -6   0  -8   80.21    8.27
   6   0   9   13.07    9.80
  -6   0  -9    5.44    8.06
   6   1   0   99.28   38.06
   6   1   0  120.11   38.55
   6   1   0  106.40   38.06
   6   1   0  112.96   37.64
  -6  -1   0  110.54   38.33
  -6  -1   0  114.89   37.65
  -6  -1   0  138.73   38.36
   6   1   1  740.46  251.21
   6   1   1  816.14  251.66
   6   1   1  619.40  248.75
  -6  -1  -1  731.91  251.36
  -6  -1  -1  878.15  248.93
  -6  -1  -1  816.93  249.35
   6   1   2  353.01  117.46
   6   1   2  322.50  117.92
   6   1   2  371.90  116.67
   6   1   2  407.02  116.31
  -6  -1  -2  345.21  117.59
  -6  -1  -2  307.97  116.13
   6   1   3  327.58   97.25
   6   1   3  239.77   96.87
   6   1   3  303.87   96.10
  -6  -1  -3  317.04   97.45
  -6  -1  -3  245.33   96.08
  -6  -1  -3  255.27   96.92
   6   1   4   29.58    9.23
   6   1   4    6.14   11.83
  -6  -1  -4   30.11   10.13
  -6  -1  -4    3.69   12.27
   6   1   5 3381.90 1101.78
  -6  -1  -5 3222.04 1101.93
   6   1   6   33.35   13.91
  -6  -1  -6   33.46   14.17
   6   1   7    0.59    7.43
  -6  -1  -7   -0.40    8.26
   6   1   8  182.86   62.78
  -6  -1  -8  183.30   62.86
   6   2   0  505.45  168.30
   6   2   0  550.06  168.85
   6   2   0  451.57  167.00
   6   2   0  549.78  166.71
  -6  -2   0  536.29  168.55
  -6  -2   0  446.21  166.57
  -6  -2   0  501.39  167.13
   6   2   1   10.75    5.20
   6   2   1    3.47    8.18
  -6  -2  -1    9.32    5.32
  -6  -2  -1    4.75   11.13
   6   2   2  261.76   79.91
   6   2   2  200.23   79.90
   6   2   2  244.89   79.09
  -6  -2  -2  249.23   80.11
  -6  -2  -2  223.92   79.01
  -6  -2  -2  200.04   81.00
   6   2   3  289.98   78.32
   6   2   3  112.48   77.52
   6   2   3  235.13   77.68
  -6  -2  -3  252.93   78.51
   6   2   4 4304.00 1177.05
   6   2   4 1581.49 1166.45
  -6  -2  -4 4551.88 1177.28
   6   2   5   16.05    8.08
  -6  -2  -5   11.45    9.28
   6   2   6  583.40  190.89
  -6  -2  -6  554.02  191.09
   6   2   7  239.95   79.69
  -6  -2  -7  226.94   79.77
   6   3   0   52.90   20.23
   6   3   0   42.03   21.69
   6   3   0   66.96   21.91
  -6  -3   0   55.37   20.49
  -6  -3   0   64.52   21.19
  -6  -3   0   54.60   23.97
   6   3   1  686.69  236.80
   6   3   1  799.97  234.87
  -6  -3  -1  757.11  237.04
  -6  -3  -1  624.21  234.51
   6   3   2  783.83  278.57
   6   3   2  844.60  276.20
  -6  -3  -2  892.36  278.82
  -6  -3  -2  837.39  276.18
  -6  -3  -3  649.16   86.22
   6   3   3  668.05  214.54
   6   3   3  623.71  213.10
  -6  -3  -3  612.23  212.76
   6   3   4   72.69   25.87
  -6  -3  -4   72.39   26.44
   6   3   5   76.24   27.46
  -6  -3  -5   78.01   28.09
   6   3   6  172.00   58.71
  -6  -3  -6  169.83   58.93
   6   4   0  809.92  280.51
   6   4   0  906.57  278.17
  -6  -4   0  861.62  280.76
  -6  -4   0  798.12  277.90
   6   4   1  464.93  151.61
   6   4   1  419.01  150.57
  -6  -4  -1  465.07  151.82
  -6  -4  -1  454.55  150.24
   6   4   2 1820.94  556.55
   6   4   2 1425.72  551.86
  -6  -4  -2 1757.61  556.74
  -6  -4  -2 1593.52  551.83
   6   4   3   59.57    4.80
   6   4   3   37.43   23.44
  -6  -4  -3   52.41   19.85
   6   4   4    0.37    3.81
  -6  -4  -4    1.39    4.82
   6   4   5   50.02    5.92
  -6  -4  -5   88.85   25.46
   6   5   0  110.89   10.98
  -6  -5   0  112.34   10.96
   6   5   0   77.28   37.29
  -6  -5  -1 1363.94  154.29
   6   5   1 1563.87  376.56
   6   5   1 1414.60  373.92
  -6  -5  -1  151.62  372.53
  -6  -5  -2  136.37    9.20
   6   5   2  115.83   29.45
   6   5   2   60.12   32.40
  -6  -5  -2   -0.13   29.52
  -6  -5  -3  520.65   72.11
   6   5   3  561.05  181.56
   6   5   4    2.10    3.68
  -6  -5  -4    4.39    4.69
   6   6   0   78.27   30.32
   6   6   0   74.76   34.68
  -6  -6   0   99.31   31.39
   6   6   1  111.41   27.05
  -6  -6  -1   97.24   27.52
  -6  -6  -1   -0.62   26.50
   6   6   2  402.99  130.21
  -6  -6  -2  368.19  130.41
   6   6   3  211.30   68.24
  -6  -6  -3  182.59   68.18
   6   7   0    6.81   10.03
  -6  -7   0    3.01   11.71
   6   7   1   65.37   25.49
  -6  -7  -1   63.40   26.73
   7 -14   3   19.82   15.76
  -7  14  -3   10.16   25.33
   7 -14   4   32.61   18.19
  -7  14  -4   22.46   27.51
   7 -14   5   -3.32   14.44
  -7  14  -5    4.18   25.31
   7 -13   0  512.71  195.80
  -7  13   0  742.35  198.25
   7 -13   1   59.19   25.43
  -7  13  -1   78.29   31.22
   7 -13   2    7.34   36.44
   7 -13   2    8.18   10.86
  -7  13  -2    9.95   18.06
   7 -13   3   -2.30  100.12
   7 -13   3  326.55   95.89
  -7  13  -3  391.59   98.04
   7 -13   4    4.86   24.05
   7 -13   4    0.34   10.61
  -7  13  -4   -9.79   18.36
   7 -13   5   -1.16   34.42
   7 -13   5   50.31   17.60
  -7  13  -5   41.05   24.55
   7 -13   6   -5.37   94.59
   7 -13   6  368.58   90.02
  -7  13  -6  312.11   92.95
   7 -13   7   -3.93   24.64
   7 -13   7   50.69   21.45
  -7  13  -7   29.79   29.68
   7 -13   8    7.45   35.17
   7 -13   8   82.77   26.74
  -7  13  -8   12.06   32.12
   7 -12   0   17.34   62.68
   7 -12   0  199.21   54.85
  -7  12   0  190.14   56.81
   7 -12   1   16.06   35.81
   7 -12   1   -7.41    9.61
  -7  12  -1    3.15   14.66
   7 -12   2    1.01   22.12
   7 -12   2    1.66    9.11
  -7  12  -2    4.64   14.24
   7 -12   3   12.10   42.62
   7 -12   3  142.54   39.02
  -7  12  -3  133.34   42.05
   7 -12   4   -0.32   28.21
   7 -12   4   54.22   15.62
  -7  12  -4   26.70   18.83
   7 -12   5  -11.12   17.62
   7 -12   5    7.82    9.40
  -7  12  -5   -0.23   15.53
   7 -12   6    2.14   13.19
   7 -12   6    6.50   10.48
  -7  12  -6   10.00   17.13
   7 -12   7  407.30  137.70
   7 -12   7  501.34  135.37
  -7  12  -7  209.85  136.76
   7 -12   8   24.31   19.80
  -7  12  -8   -2.13   27.83
   7 -12   9  629.01  212.38
   7 -11   0    7.53   23.76
   7 -11   0    7.59   10.52
  -7  11   0    9.04   14.02
   7 -11   1    5.88   17.87
   7 -11   1    0.01    9.95
  -7  11  -1    1.00   13.37
   7 -11   2   92.35   42.37
   7 -11   2  123.42   39.07
  -7  11  -2  103.29   40.42
   7 -11   3  142.54   54.71
   7 -11   3  165.58   50.17
  -7  11  -3  110.78   51.16
   7 -11   4  296.05  101.56
   7 -11   4  302.85   98.98
  -7  11  -4  283.20   99.51
   7 -11   5   22.71   17.84
   7 -11   5   33.70   13.37
  -7  11  -5   24.70   16.66
   7 -11   6  335.57  105.64
   7 -11   6  293.90  103.07
  -7  11  -6  304.11  104.15
   7 -11   7  970.73  340.54
   7 -11   7  959.65  337.03
  -7  11  -7 1187.49  338.80
   7 -11   8  562.91  136.57
   7 -11   8  473.09  134.87
  -7  11  -8    0.21  134.72
   7 -11   9   97.35   32.29
   7 -11   9  102.48   38.46
  -7  11  -9    0.05   38.35
   7 -11  10    6.64   14.24
   7 -10   0  265.23   89.84
   7 -10   0  285.67   86.46
  -7  10   0  210.76   86.95
   7 -10   1  155.33   53.73
  -7  10  -1  167.00   54.69
   7 -10   2   19.29   10.56
  -7  10  -2   21.64   14.56
   7 -10   3  115.91   39.45
   7 -10   3  107.62   36.89
  -7  10  -3  102.65   38.62
   7 -10   4  156.29   58.71
   7 -10   4  179.84   57.05
  -7  10  -4  160.93   58.15
   7 -10   5  754.40  279.22
   7 -10   5  926.44  276.27
  -7  10  -5  766.00  276.64
   7 -10   6   29.41   17.80
   7 -10   6   31.04   14.32
  -7  10  -6   36.23   19.64
   7 -10   7 1217.74  412.40
   7 -10   7 1249.16  408.14
  -7  10  -7 1228.74  408.97
   7 -10   8    0.90   13.18
   7 -10   8    2.97   14.76
  -7  10  -8   -8.81   22.85
   7 -10   9  146.31   42.94
   7 -10   9  149.34   47.82
  -7  10  -9   -1.36   46.87
   7 -10  10    9.79   15.11
   7 -10  11   27.72   23.71
  -7  10 -11   35.08   36.78
   7  -9   0  142.57   55.33
   7  -9   0  146.40   52.77
  -7   9   0  180.19   53.41
   7  -9   1   51.67   23.17
   7  -9   1   65.49   20.86
  -7   9  -1   49.83   21.69
   7  -9   2   19.21   16.54
   7  -9   2   17.45   10.64
  -7   9  -2   22.80   12.04
   7  -9   3   47.84   19.13
   7  -9   3   34.67   17.75
  -7   9  -3   63.29   19.02
   7  -9   4 1808.23  595.22
   7  -9   4 1513.39  589.14
  -7   9  -4 2241.20  589.72
   7  -9   5   67.91   22.36
   7  -9   5   42.62   19.99
  -7   9  -5   63.91   23.17
   7  -9   6  579.14  208.35
   7  -9   6  688.40  206.27
  -7   9  -6  553.69  206.33
   7  -9   7  316.05  105.73
  -7   9  -7  298.24  106.42
  -7   9  -7  317.67  106.10
   7  -9   8 1612.98  455.35
   7  -9   8 1757.71  451.30
  -7   9  -8 1643.85  455.82
  -7   9  -8    7.11  450.44
   7  -9   9   41.63   17.48
   7  -9   9   16.13   26.42
  -7   9  -9   44.04   20.77
  -7   9  -9    6.33   27.69
   7  -9  10   59.40   25.33
  -7   9 -10   58.05   27.77
   7  -9  11  361.69  129.67
  -7   9 -11  404.81  131.25
   7  -8   0   49.97   16.03
   7  -8   0   10.31   13.58
   7  -8   0   60.51   13.42
  -7   8   0    9.20   13.43
  -7   8   0   50.56   14.29
   7  -8   1  518.18  129.57
   7  -8   1  210.33  128.47
   7  -8   1  450.97  127.01
  -7   8  -1  210.11  128.28
  -7   8  -1  597.94  127.39
   7  -8   2  155.04   40.19
   7  -8   2   60.21   39.00
   7  -8   2  166.97   38.30
  -7   8  -2   54.32   38.65
  -7   8  -2  142.89   38.42
   7  -8   3 1310.09  451.07
   7  -8   3 1558.26  446.48
  -7   8  -3 1119.18  446.40
   7  -8   4  717.83  242.40
   7  -8   4  716.95  239.46
  -7   8  -4  777.04  242.85
  -7   8  -4  708.83  239.61
   7  -8   5  275.28   77.24
   7  -8   5  182.69   75.21
  -7   8  -5  227.16   77.37
  -7   8  -5  256.80   76.03
   7  -8   6   90.35   33.40
   7  -8   6   95.61   32.80
  -7   8  -6   82.08   34.37
  -7   8  -6   97.87   35.09
   7  -8   7  246.55   91.99
   7  -8   7  313.35   90.90
  -7   8  -7  242.70   92.41
   7  -8   8   82.22   27.12
   7  -8   8   42.42   28.76
  -7   8  -8   86.32   28.72
  -7   8  -8   73.52   33.23
   7  -8   9   47.33   15.57
   7  -8   9   14.92   19.23
  -7   8  -9   48.85   16.98
  -7   8  -9    4.04   26.25
  -7   8 -10  130.54   14.81
   7  -8  10  129.78   45.93
   7  -8  11    6.94   18.56
  -7   8 -11   -1.02   19.35
   7  -7   0   83.82   20.72
   7  -7   0   43.16   18.86
   7  -7   0   36.29   17.90
   7  -7   0   62.41   17.61
  -7   7   0   50.53   17.86
  -7   7   0   34.55   18.20
   7  -7   1    8.18    9.45
   7  -7   1    2.37    5.11
   7  -7   1    7.85    4.51
  -7   7  -1    4.47    5.58
  -7   7  -1    5.01    5.19
  -7   7  -1    2.24    5.95
   7  -7   2  817.74  218.87
   7  -7   2  473.38  218.37
   7  -7   2  462.68  216.07
   7  -7   2  927.74  216.26
  -7   7  -2  555.98  218.24
  -7   7  -2  664.71  216.16
  -7   7  -2  644.49  216.27
   7  -7   3  255.75   52.11
   7  -7   3  104.93   51.02
   7  -7   3   26.89   49.47
   7  -7   3  171.24   49.70
  -7   7  -3   43.67   50.35
  -7   7  -3  368.60   52.78
  -7   7  -3  252.64   50.19
  -7   7  -3   95.76   50.18
   7  -7   4  874.99  288.38
   7  -7   4  881.44  285.23
  -7   7  -4  899.13  288.53
  -7   7  -4  808.10  285.27
   7  -7   5  207.94   79.07
   7  -7   5  269.71   77.58
  -7   7  -5  196.33   79.43
  -7   7  -5  233.07   77.80
   7  -7   6  750.51  261.76
   7  -7   6  770.46  258.81
  -7   7  -6  820.22  262.06
  -7   7  -6  809.63  259.35
   7  -7   7   21.92   14.03
   7  -7   7   28.14   16.51
  -7   7  -7   31.70   15.74
   7  -7   8  235.46   77.95
   7  -7   8  187.26   77.86
  -7   7  -8  233.00   78.33
  -7   7  -8  276.47   80.44
   7  -7   9   72.53   20.73
   7  -7   9   -1.64   25.60
  -7   7  -9   54.46   21.63
   7  -7  10   14.61   14.14
  -7   7 -10   23.46   15.87
   7  -7  11  321.59  125.70
  -7   7 -11  424.92  126.87
   7  -6   0  405.29  102.25
   7  -6   0  203.79  100.24
   7  -6   0  385.16  100.34
  -7   6   0  268.64  101.42
  -7   6   0  354.70  100.45
  -7   6   0  241.05  100.28
   7  -6   1 1845.80  436.74
   7  -6   1 1161.61  436.19
   7  -6   1 1143.81  432.16
   7  -6   1 1339.11  432.12
  -7   6  -1 1218.91  436.09
  -7   6  -1 1554.13  436.75
  -7   6  -1 1500.49  432.28
  -7   6  -1 1049.62  432.13
   7  -6   2 1019.97  258.79
   7  -6   2  869.84  258.53
   7  -6   2  552.37  255.75
   7  -6   2  717.97  255.71
  -7   6  -2  742.37  258.31
  -7   6  -2  998.00  258.95
  -7   6  -2  843.79  255.86
  -7   6  -2  676.89  255.81
   7  -6   3  767.65  228.91
   7  -6   3  624.23  228.64
   7  -6   3  528.72  226.26
   7  -6   3  905.06  226.38
  -7   6  -3  571.73  228.49
  -7   6  -3  742.91  226.36
  -7   6  -3  639.10  226.32
   7  -6   4   17.17    7.90
   7  -6   4    9.97    7.67
   7  -6   4    5.95    7.56
  -7   6  -4   13.21    7.57
  -7   6  -4   26.14    9.54
  -7   6  -4   18.55    7.74
  -7   6  -4   12.50    8.57
   7  -6   5 2418.02  805.92
   7  -6   5 3631.01  799.06
   7  -6   5 1669.13  798.64
  -7   6  -5 2257.42  805.99
  -7   6  -5 2846.57  798.98
  -7   6  -5 1588.79  798.71
  -7   6  -6  178.79   21.09
   7  -6   6  179.14   60.87
   7  -6   6  179.09   59.97
   7  -6   7   84.30   30.55
   7  -6   7   80.98   32.24
  -7   6  -7   85.83   31.17
  -7   6  -7  100.17   35.38
   7  -6   8  244.33   80.27
   7  -6   8  184.57   80.78
  -7   6  -8  273.99   80.61
  -7   6  -8  226.93   83.36
  -7   6  -9   24.35    4.31
   7  -6   9   26.24   11.09
   7  -6  10  242.57   30.85
  -7   6 -10  252.85   30.78
   7  -6  11   16.82   14.44
  -7   6 -11    6.88   14.46
   7  -5   0  554.59  174.99
   7  -5   0  549.85  173.25
   7  -5   0  529.67  173.16
  -7   5   0  494.74  174.86
  -7   5   0  550.77  175.37
  -7   5   0  520.74  173.23
  -7   5   0  480.52  173.27
   7  -5   1  128.98   49.38
   7  -5   1  144.39   49.34
   7  -5   1  137.19   48.45
   7  -5   1  137.42   48.26
  -7   5  -1  147.57   49.10
  -7   5  -1  190.74   49.87
  -7   5  -1  152.73   48.43
  -7   5  -1  142.48   48.61
   7  -5   2  839.08  294.50
   7  -5   2  860.78  294.45
   7  -5   2  796.43  291.60
   7  -5   2  920.78  291.57
  -7   5  -2  808.92  294.34
  -7   5  -2  824.82  294.62
  -7   5  -2 1010.63  291.69
  -7   5  -2 1002.34  291.81
   7  -5   3   20.71    8.95
   7  -5   3   13.64    7.75
   7  -5   3   12.57    7.76
   7  -5   3   13.50    5.91
  -7   5  -3   11.82    6.75
  -7   5  -3   18.14    8.34
  -7   5  -3   14.77    7.01
  -7   5  -3    7.79    8.90
   7  -5   4  559.32  164.00
   7  -5   4  506.16  163.76
   7  -5   4  497.26  161.97
   7  -5   4  531.85  161.78
  -7   5  -4  365.35  163.46
  -7   5  -4  600.40  164.20
  -7   5  -4  476.97  161.78
  -7   5  -4  450.92  162.08
   7  -5   5   45.46   15.54
   7  -5   5   27.36   15.11
  -7   5  -5   51.58   15.57
  -7   5  -5   37.83   16.41
   7  -5   6   73.05   25.88
  -7   5  -6   69.11   26.16
  -7   5  -6   73.45   27.03
   7  -5   7    7.29    8.08
   7  -5   7    5.09   13.54
  -7   5  -7    6.05    8.82
   7  -5   8   24.03    2.75
  -7   5  -8   17.50   12.14
   7  -5   9  292.33  101.56
  -7   5  -9  308.25  101.73
   7  -5  10   62.83   23.12
  -7   5 -10   55.17   23.98
   7  -4   0  181.16   72.17
   7  -4   0  193.30   72.17
   7  -4   0  211.92   71.24
   7  -4   0  212.82   71.10
  -7   4   0  249.16   72.17
  -7   4   0  210.30   72.31
  -7   4   0  260.27   71.31
  -7   4   0  180.55   71.28
   7  -4   1 2512.41  800.45
   7  -4   1 2281.63  800.24
   7  -4   1 2312.71  793.19
  -7   4  -1 2545.85  800.16
  -7   4  -1 2533.62  800.54
  -7   4  -1 2355.00  793.24
  -7   4  -1 2362.50  793.25
   7  -4   2  443.21  156.16
   7  -4   2  458.21  156.30
   7  -4   2  451.88  154.60
  -7   4  -2  568.71  156.26
  -7   4  -2  421.55  156.23
  -7   4  -2  421.44  154.51
  -7   4  -2  496.80  154.69
   7  -4   3  109.87   28.56
   7  -4   3   72.91   28.65
   7  -4   3   83.11   28.06
   7  -4   3   97.07   27.60
  -7   4  -3   61.04   28.45
  -7   4  -3   94.22   28.77
  -7   4  -3   73.71   27.50
  -7   4  -3   52.71   27.68
   7  -4   4  222.78   31.78
   7  -4   4  278.24   86.35
   7  -4   4  247.89   85.44
  -7   4  -4  215.62   86.35
  -7   4  -4  295.24   86.56
  -7   4  -4  274.95   85.41
  -7   4  -4  259.29   85.54
   7  -4   5  166.33   46.05
  -7   4  -5  130.81   46.05
  -7   4  -5  124.73   45.51
  -7   4  -5   97.03   46.41
   7  -4   6  521.42  177.98
  -7   4  -6  537.44  178.24
  -7   4  -6  545.84  176.64
  -7   4  -7   14.05    1.81
   7  -4   7   16.34    8.71
   7  -4   8   -0.26    6.20
  -7   4  -8   -0.99    6.65
   7  -4   9   85.75   29.58
  -7   4  -9   81.93   29.69
   7  -4  10    7.41    9.38
  -7   4 -10    3.73    9.00
   7  -3   0 2980.43 1013.61
   7  -3   0 3411.94 1013.62
   7  -3   0 2866.28 1004.75
   7  -3   0 2872.07 1004.72
  -7   3   0 3075.99 1013.53
  -7   3   0 3289.40 1013.74
  -7   3   0 3676.57 1004.89
  -7   3   0 2364.38 1004.71
   7  -3   1   49.88   17.27
   7  -3   1   57.94   17.81
   7  -3   1   40.44   16.64
   7  -3   1   41.62   16.46
  -7   3  -1   44.99   17.31
  -7   3  -1   51.11   17.61
  -7   3  -1   59.06   16.67
  -7   3  -1   42.70   17.15
   7  -3   2 1933.89  651.43
   7  -3   2 2085.76  651.68
   7  -3   2 1966.50  645.64
  -7   3  -2 2069.69  651.57
  -7   3  -2 1863.93  651.58
  -7   3  -2 1954.30  645.70
  -7   3  -2 1815.22  645.79
   7  -3   3  567.35  191.27
   7  -3   3  582.10  191.59
   7  -3   3  574.93  189.31
  -7   3  -3  489.48  191.44
  -7   3  -3  624.34  191.50
  -7   3  -3  582.45  189.47
  -7   3  -3  602.49  189.72
  -7   3  -4    2.26    2.92
   7  -3   4   -0.28    4.38
   7  -3   4    2.01    5.48
   7  -3   4    1.72    5.44
  -7   3  -4    1.80    4.51
  -7   3  -4    2.42    9.37
   7  -3   5    5.83    6.35
   7  -3   5    4.80    7.44
  -7   3  -5    6.17    7.17
  -7   3  -5    0.99    8.59
  -7   3  -5    6.00   12.06
   7  -3   6    2.70    7.14
   7  -3   6    7.14    7.82
  -7   3  -6   -1.80    7.73
   7  -3   7   14.79   10.29
  -7   3  -7   21.48   10.52
   7  -3   8    1.11    8.23
  -7   3  -8    1.95    7.92
   7  -3   9   93.85   33.13
  -7   3  -9   94.13   33.06
   7  -3  10   84.84   30.93
  -7   3 -10   91.18   31.04
   7  -2   0   39.59   13.65
   7  -2   0   47.37   14.65
   7  -2   0   40.73   13.93
   7  -2   0   36.75   13.26
  -7   2   0   36.97   14.22
  -7   2   0   38.88   13.74
  -7   2   0   27.03   13.28
  -7   2   0   39.96   14.02
   7  -2   1  201.70   77.41
   7  -2   1  247.88   77.86
   7  -2   1  272.81   76.69
   7  -2   1  215.79   76.45
  -7   2  -1  231.68   77.64
  -7   2  -1  195.77   77.45
  -7   2  -1  282.45   76.69
  -7   2  -1  215.30   76.74
   7  -2   2   52.99   19.46
   7  -2   2   65.40   20.69
   7  -2   2   54.89   19.24
   7  -2   2   66.24   19.05
  -7   2  -2   50.44   19.96
  -7   2  -2   50.27   19.56
  -7   2  -2   46.33   18.94
  -7   2  -2   56.40   21.45
   7  -2   3  508.70  198.96
   7  -2   3  602.12  199.48
   7  -2   3  674.16  197.41
   7  -2   3  587.32  196.99
  -7   2  -3  540.43  199.26
  -7   2  -3  576.93  199.10
  -7   2  -3  642.63  197.14
  -7   2  -3  727.55  197.74
   7  -2   4    5.84    5.25
   7  -2   4    4.06    7.96
   7  -2   4    3.81    5.53
  -7   2  -4   10.33    6.64
  -7   2  -4    7.27    6.06
   7  -2   5   65.66   20.51
   7  -2   5   29.57   22.02
  -7   2  -5   65.71   20.85
  -7   2  -5   54.72   20.53
  -7   2  -5   52.96   23.89
   7  -2   6  724.66  105.13
  -7   2  -6  834.95  257.65
   7  -2   7  280.59   96.11
  -7   2  -7  292.30   96.33
   7  -2   8  214.42   73.19
  -7   2  -8  217.50   73.38
   7  -2   9  863.60  119.58
  -7   2  -9  901.27  294.47
   7  -1   0   18.45    8.24
   7  -1   0   14.46    9.80
   7  -1   0   23.45   10.43
   7  -1   0   14.91    8.16
  -7   1   0   18.67    8.69
  -7   1   0   32.14    9.12
  -7   1   0   20.51   10.81
   7  -1   1    6.98    4.98
   7  -1   1    3.43    8.87
   7  -1   1    5.80    8.05
   7  -1   1    8.28    5.63
  -7   1  -1    5.00    5.36
  -7   1  -1    9.49    5.76
  -7   1  -1    7.14    4.94
  -7   1  -1    6.77    8.14
   7  -1   2   71.95   24.02
   7  -1   2   70.94   25.00
   7  -1   2   65.78   23.88
  -7   1  -2   62.31   24.69
  -7   1  -2   64.81   24.26
  -7   1  -2   77.22   24.35
  -7   1  -2   64.08   25.45
   7  -1   3  544.44  192.20
   7  -1   3  548.37  190.63
   7  -1   3  564.37  190.29
  -7   1  -3  612.50  192.43
  -7   1  -3  609.77  190.39
   7  -1   4  156.93   51.09
  -7   1  -4  179.38   51.39
  -7   1  -4  130.94   50.40
  -7   1  -4  106.88   52.00
   7  -1   5   48.08   15.96
  -7   1  -5   50.33   16.34
  -7   1  -5   28.30   15.97
   7  -1   6    2.76    6.83
  -7   1  -6   -0.21    7.27
   7  -1   7   54.08   19.54
  -7   1  -7   50.35   19.96
   7  -1   8  544.60  181.37
  -7   1  -8  539.62  181.55
   7  -1   9   33.72   16.57
  -7   1  -9   37.86   16.76
   7   0   0   52.28   17.44
   7   0   0   44.04   18.06
   7   0   0   48.08   17.80
   7   0   0   45.98   17.25
  -7   0   0   44.38   17.52
  -7   0   0   50.14   17.13
  -7   0   0   57.00   18.77
   7   0   1   29.62   13.50
   7   0   1   35.41   14.90
   7   0   1   36.42   15.56
   7   0   1   46.40   13.57
  -7   0  -1   36.64   14.29
  -7   0  -1   41.72   13.61
  -7   0  -1   30.67   16.11
   7   0   2   70.56   24.61
   7   0   2   55.93   25.81
   7   0   2   95.09   24.90
  -7   0  -2   64.07   24.82
  -7   0  -2   48.72   25.94
   7   0   3  237.48   78.29
   7   0   3  141.16   78.32
   7   0   3  253.06   77.63
  -7   0  -3  272.95   78.60
  -7   0  -3  260.02   77.72
  -7   0  -3  155.42   78.75
   7   0   4  247.89   64.20
   7   0   4  136.29   63.18
  -7   0  -4  238.11   64.45
  -7   0  -4  155.23   63.42
   7   0   5  169.03   56.59
  -7   0  -5  162.43   56.76
   7   0   6  110.13   40.23
  -7   0  -6  123.22   40.52
   7   0   7   22.55   11.68
  -7   0  -7   24.20   12.04
   7   0   8    2.37    9.02
  -7   0  -8   -2.20    7.06
   7   1   0  782.45  262.43
   7   1   0  837.68  263.09
   7   1   0  759.72  260.33
   7   1   0  831.00  260.00
  -7  -1   0  779.30  262.63
  -7  -1   0  740.30  259.99
  -7  -1   0  796.29  260.65
   7   1   1  347.95  127.78
   7   1   1  447.47  126.83
  -7  -1  -1  424.61  128.06
  -7  -1  -1  352.95  126.55
  -7  -1  -1  315.51  127.44
   7   1   2  273.93   38.53
   7   1   2  334.65  100.00
  -7  -1  -2  306.34  101.02
  -7  -1  -2  288.41   99.93
   7   1   3  219.50   73.99
   7   1   3  223.64   73.48
  -7  -1  -3  213.10   74.26
  -7  -1  -3  220.42   73.73
  -7  -1  -4  920.27  113.93
   7   1   4 1134.63  281.20
   7   1   4  563.78  278.07
  -7  -1  -5   60.90    4.17
   7   1   5   62.97   22.26
   7   1   6  289.25   96.47
  -7  -1  -6  281.51   96.67
   7   1   7  269.27   85.34
  -7  -1  -7  230.48   85.32
   7   2   0   35.62   16.02
   7   2   0   53.54   17.72
  -7  -2   0   45.02   16.48
  -7  -2   0   46.74   17.49
   7   2   1  170.20   53.48
   7   2   1  162.11   53.07
  -7  -2  -1  170.58   53.72
  -7  -2  -1  122.08   52.65
   7   2   2   46.02   19.63
   7   2   2   48.02   22.42
  -7  -2  -2   72.08   20.50
  -7  -2  -2   52.05   21.52
   7   2   3  109.08   34.84
   7   2   3   74.29   36.34
  -7  -2  -3  118.32   35.32
  -7  -2  -3   94.55   36.93
  -7  -2  -4    3.32    3.91
   7   2   4    7.35    6.74
   7   2   5  540.87  179.21
  -7  -2  -5  527.59  179.43
   7   2   6   10.25   10.83
  -7  -2  -6    1.98    8.91
   7   3   0   21.72   11.47
   7   3   0   37.59   13.13
  -7  -3   0   28.82   12.42
  -7  -3   0   23.05   11.45
   7   3   1  835.81  290.70
   7   3   1  826.51  288.19
  -7  -3  -1  822.23  290.86
  -7  -3  -1 1022.65  288.47
   7   3   2    3.88    6.68
   7   3   2    8.43   15.18
  -7  -3  -2    9.26    8.32
  -7  -3  -2    4.48   12.20
   7   3   3   19.97    9.49
   7   3   3    2.67   16.42
  -7  -3  -3   26.22   11.00
  -7  -3  -3   19.39   17.87
   7   3   4    5.02    7.14
  -7  -3  -4    3.13    8.84
   7   3   5  206.50   73.13
  -7  -3  -5  224.75   73.43
  -7  -4   0   21.15    3.45
   7   4   0   21.16   10.47
   7   4   0   20.29   18.35
  -7  -4   0   18.39   13.94
   7   4   1  298.48   83.28
   7   4   1  289.50   83.22
  -7  -4  -1  373.31   83.76
  -7  -4  -1   -3.77   81.85
   7   4   2    9.26    7.53
   7   4   2   -3.27   16.24
  -7  -4  -2    9.77    6.53
  -7  -4  -2    0.63   11.90
   7   4   3  282.29   94.11
  -7  -4  -3  273.57   94.52
   7   4   4    2.47    7.76
  -7  -4  -4    6.32    8.81
   7   5   0    8.69    8.33
  -7  -5   0    7.77    9.80
  -7  -5   0   -3.25   18.12
   7   5   1   68.52   19.30
   7   5   1   47.44   22.33
  -7  -5  -1   68.81   20.01
  -7  -5  -1    5.41   20.64
   7   5   2  982.02  306.63
  -7  -5  -2  839.25  306.67
   7   6   0   29.80   14.00
  -7  -6   0   28.66   15.11
   7   6   1  139.17   49.50
  -7  -6  -1  143.65   49.63
   8 -13   0  215.91   77.16
  -8  13   0  244.61   81.97
   8 -13   1  382.52  136.74
  -8  13  -1  465.17  139.69
   8 -13   2   97.80   37.14
  -8  13  -2  100.74   43.30
   8 -13   3  219.64   77.79
  -8  13  -3  245.18   81.61
   8 -13   4    6.14   27.06
   8 -13   4    1.27   10.87
  -8  13  -4   15.81   23.36
   8 -13   5   -3.75   56.98
   8 -13   5  156.33   45.71
  -8  13  -5  172.59   49.81
   8 -13   6   52.06   25.21
  -8  13  -6   56.29   31.06
   8 -12   0   21.09  118.61
   8 -12   0  391.28  108.24
  -8  12   0  362.43  109.72
   8 -12   1   67.61   25.05
  -8  12  -1   50.94   28.08
   8 -12   2   -8.14  187.27
   8 -12   2  663.24  184.77
  -8  12  -2  710.41  186.09
   8 -12   3   24.17   38.55
   8 -12   3   62.12   22.04
  -8  12  -3   60.16   26.68
   8 -12   4   -3.43   38.99
   8 -12   4   95.33   27.93
  -8  12  -4  103.23   31.21
   8 -12   5    2.42   20.21
   8 -12   5    2.25    9.78
  -8  12  -5    6.50   15.55
   8 -12   6    9.23   15.27
  -8  12  -6   -2.17   24.97
   8 -12   7   -1.04   31.36
   8 -12   7  157.72   35.06
  -8  12  -7   20.49   42.54
   8 -12   8   -2.19   19.47
   8 -11   0   14.63   34.90
   8 -11   0   62.35   22.61
  -8  11   0   81.08   26.48
   8 -11   1    9.01  603.59
   8 -11   1 1826.19  597.87
  -8  11  -1 2737.21  599.00
   8 -11   2   22.04   31.97
   8 -11   2   32.72   13.98
  -8  11  -2   32.19   19.37
   8 -11   3    4.48   16.80
   8 -11   3    4.32    9.69
  -8  11  -3    4.75   15.14
   8 -11   4    9.46   91.35
   8 -11   4  296.13   89.70
  -8  11  -4  418.06   91.45
   8 -11   5    0.04   16.03
   8 -11   5   24.80   16.71
  -8  11  -5   35.08   19.25
   8 -11   6    1.67  115.20
   8 -11   6  518.80  115.03
  -8  11  -6  471.51  116.70
   8 -11   7   38.45   22.32
   8 -11   7   71.64   22.69
  -8  11  -7    1.65   34.65
   8 -11   8   20.32   18.31
   8 -11   8   17.85   22.80
  -8  11  -8   15.01   29.12
   8 -11   9   -0.25   25.48
   8 -10   0 1208.77  422.85
   8 -10   0 1192.89  417.06
  -8  10   0 1389.28  417.47
   8 -10   1    8.60   21.34
   8 -10   1   14.24   10.30
  -8  10  -1   12.20   12.54
   8 -10   2  147.80   53.52
   8 -10   2  146.03   50.73
  -8  10  -2  156.74   51.53
   8 -10   3   67.96   33.29
   8 -10   3   91.12   30.52
  -8  10  -3   92.77   32.18
   8 -10   4   28.01   18.05
   8 -10   4   36.58   15.48
  -8  10  -4   46.06   19.88
   8 -10   5  121.65   44.00
   8 -10   5  114.61   40.62
  -8  10  -5  118.05   42.10
   8 -10   6    4.75   13.48
   8 -10   6    0.89   17.41
  -8  10  -6    0.82   13.32
   8 -10   7   31.96   18.33
   8 -10   7   38.22   17.95
  -8  10  -7    7.37   23.14
   8 -10   8  760.48  178.48
   8 -10   8  626.99  176.79
  -8  10  -8  -12.50  177.61
   8 -10   9   34.98   21.46
  -8  10  -9   52.46   28.73
   8  -9   0   35.61   22.63
   8  -9   0   45.00   15.97
  -8   9   0   42.53   17.37
   8  -9   1  293.42   87.70
   8  -9   1  263.14   85.16
  -8   9  -1  226.87   85.43
   8  -9   2  134.10   53.74
   8  -9   2  171.06   50.80
  -8   9  -2  135.60   51.24
   8  -9   3   95.26   36.09
   8  -9   3   95.27   33.74
  -8   9  -3  100.64   35.17
   8  -9   4  111.75   43.91
   8  -9   4  128.77   42.58
  -8   9  -4  121.35   42.82
   8  -9   5   91.73   35.09
   8  -9   5   96.97   33.22
  -8   9  -5   96.44   34.54
   8  -9   6   86.76   31.18
   8  -9   6   73.55   31.10
  -8   9  -6  108.18   33.36
  -8   9  -6   69.70   31.09
   8  -9   7 1215.39  426.05
   8  -9   7 1326.62  422.02
  -8   9  -7 1266.52  426.59
   8  -9   8  169.87   46.37
   8  -9   8  109.10   48.56
  -8   9  -8  195.95   48.44
  -8   9  -8   13.49   54.44
   8  -9   9  979.18  134.35
  -8   9  -9 1027.10  335.38
   8  -9  10  393.62  131.89
  -8   9 -10  378.13  132.93
   8  -8   0   57.58   17.96
   8  -8   0   43.68   13.56
  -8   8   0   20.76   14.35
  -8   8   0   29.69   13.74
   8  -8   1    9.73   15.52
   8  -8   1    7.57    6.98
  -8   8  -1   11.48    8.17
   8  -8   2   43.98   18.35
   8  -8   2   38.46   13.95
  -8   8  -2   30.89   14.74
   8  -8   3  140.37   54.17
   8  -8   3  168.57   51.54
  -8   8  -3  142.76   51.90
   8  -8   4   16.24   12.55
   8  -8   4   22.72   10.93
  -8   8  -4   28.86   20.88
  -8   8  -4   26.46   13.03
   8  -8   5   58.38   22.87
   8  -8   5   55.99   21.29
  -8   8  -5   58.42   24.80
  -8   8  -5   54.66   21.44
   8  -8   6  180.47   61.84
   8  -8   6  169.18   60.18
  -8   8  -6  207.35   62.68
  -8   8  -6  166.16   62.12
   8  -8   7  101.90   32.30
   8  -8   7   97.51   34.24
  -8   8  -7  111.32   33.87
  -8   8  -7   -1.04   32.97
   8  -8   8  334.26   95.14
   8  -8   8  309.09   95.80
  -8   8  -8  364.48   95.90
  -8   8  -8   12.67   97.87
   8  -8   9   11.31   13.79
  -8   8  -9   -0.05   17.59
   8  -8  10  220.39   80.09
  -8   8 -10  236.53   80.55
   8  -7   0   31.37   14.99
   8  -7   0   18.92   11.03
   8  -7   0   33.56    9.76
  -8   7   0   11.74   10.65
  -8   7   0   24.25   10.24
   8  -7   1   32.20   14.14
   8  -7   1    6.99    9.13
  -8   7  -1    9.42    8.00
  -8   7  -1   22.33    7.82
   8  -7   2  922.09  272.52
   8  -7   2  740.10  269.05
  -8   7  -2 1199.18  273.47
  -8   7  -2  696.22  269.10
   8  -7   3   33.31   16.14
   8  -7   3   21.55   10.63
  -8   7  -3   33.77   18.28
  -8   7  -3   28.64   11.04
   8  -7   4  122.66   38.76
  -8   7  -4  120.72   39.74
  -8   7  -4   92.02   36.88
   8  -7   5 1755.45  575.71
  -8   7  -5 1738.53  575.87
  -8   7  -5 1695.94  570.35
   8  -7   6   34.91   16.56
   8  -7   6   22.97   14.53
  -8   7  -6   56.57   18.44
  -8   7  -6   28.78   16.19
   8  -7   7   57.76   24.48
   8  -7   7   64.05   27.64
  -8   7  -7   65.10   25.41
  -8   7  -8    9.23    7.55
   8  -7   8    6.10   11.48
   8  -7   8   -0.33   20.57
  -8   7  -8    7.16   29.16
   8  -7   9  548.92  185.84
  -8   7  -9  558.24  186.13
   8  -7  10  275.21   98.07
  -8   7 -10  297.12   99.38
   8  -6   0   55.88   13.88
   8  -6   0   11.54    5.76
  -8   6   0    0.59    7.18
  -8   6   0    4.67    5.95
   8  -6   1  159.71   48.69
   8  -6   1  112.79   47.74
   8  -6   1  172.31   46.81
  -8   6  -1  108.76   47.62
  -8   6  -1  175.98   49.52
  -8   6  -1  124.31   46.84
   8  -6   2  124.92   33.02
   8  -6   2   72.78   31.35
   8  -6   2   98.48   30.25
  -8   6  -2   52.74   30.88
  -8   6  -2  108.82   33.45
  -8   6  -2   99.39   30.48
   8  -6   3    4.17    8.00
  -8   6  -3    4.98    8.65
  -8   6  -3    2.52    5.13
   8  -6   4 1771.93  672.41
   8  -6   4 1936.04  666.40
  -8   6  -4 1823.01  672.54
  -8   6  -4 2503.18  666.62
   8  -6   5    5.26    8.20
   8  -6   5    8.85    8.56
  -8   6  -5    3.92    9.65
  -8   6  -5    6.09    9.92
   8  -6   6  936.40  300.48
   8  -6   6  953.03  297.58
  -8   6  -6  867.23  300.56
  -8   6  -6  804.09  297.83
   8  -6   7  156.80   58.51
   8  -6   7  180.55   59.92
  -8   6  -7  183.75   58.95
  -8   6  -7  157.15   63.75
   8  -6   8  662.28  222.11
  -8   6  -8  665.61  222.28
   8  -6   9   65.97   24.41
  -8   6  -9   61.15   25.14
   8  -6  10   22.10   15.78
  -8   6 -10   13.67   12.06
   8  -5   0  116.36   36.38
   8  -5   0   95.89   35.17
   8  -5   0   74.92   34.20
   8  -5   0  126.57   34.15
  -8   5   0   89.26   34.88
  -8   5   0  141.03   36.42
  -8   5   0   97.31   34.15
  -8   5   0   83.24   34.46
   8  -5   1   12.47    8.63
   8  -5   1   12.59    7.09
   8  -5   1   13.91    5.70
  -8   5  -1    8.25    7.54
  -8   5  -1   26.62   11.60
  -8   5  -1   14.73    6.03
  -8   5  -1    7.16    7.69
   8  -5   2  252.21   91.45
   8  -5   2  304.96   91.16
  -8   5  -2  205.59   92.38
  -8   5  -2  325.58   92.70
  -8   5  -2  296.43   91.22
  -8   5  -2  262.65   91.61
   8  -5   3  138.41   40.26
   8  -5   3   95.88   38.63
  -8   5  -3  136.07   40.37
  -8   5  -3  119.27   39.04
   8  -5   4   16.96   11.58
  -8   5  -4   39.88   13.86
  -8   5  -4   24.24   11.45
   8  -5   5  752.92  252.08
   8  -5   5  638.78  249.29
  -8   5  -5  724.23  252.16
  -8   5  -5  932.85  249.68
   8  -5   6  136.58   41.61
   8  -5   6   95.67   41.08
  -8   5  -6  127.47   41.79
  -8   5  -6  123.28   43.06
   8  -5   7  623.82  178.58
   8  -5   7  343.79  176.85
  -8   5  -7  609.39  178.62
   8  -5   8  274.85   98.60
  -8   5  -8  307.98   98.81
  -8   5  -9   34.19    3.41
   8  -5   9   49.91   18.82
   8  -4   0  466.94  149.65
   8  -4   0  498.89  149.61
   8  -4   0  409.96  147.75
   8  -4   0  468.34  147.66
  -8   4   0  442.92  149.37
  -8   4   0  480.97  149.81
  -8   4   0  440.98  147.74
  -8   4   0  376.61  147.79
   8  -4   1  293.94   83.23
   8  -4   1  278.58   83.33
   8  -4   1  180.00   81.87
   8  -4   1  286.24   81.93
  -8   4  -1  227.46   83.08
  -8   4  -1  282.47   83.52
  -8   4  -1  256.69   81.97
  -8   4  -1  164.51   81.95
   8  -4   2  760.45  222.33
   8  -4   2  655.57  222.65
   8  -4   2  527.70  220.19
   8  -4   2  777.42  220.12
  -8   4  -2  579.01  222.54
  -8   4  -2  637.45  222.39
  -8   4  -2  636.38  220.11
   8  -4   3  297.58  104.10
   8  -4   3  295.82  102.72
  -8   4  -3  344.03  104.22
  -8   4  -3  313.96  102.85
   8  -4   4  333.77  110.07
   8  -4   4  343.24  108.74
  -8   4  -4  318.73  110.12
  -8   4  -4  309.13  108.74
   8  -4   5  167.37   60.62
   8  -4   5  207.05   60.26
  -8   4  -5  165.81   60.69
  -8   4  -5  172.41   60.37
   8  -4   6  574.23  183.47
  -8   4  -6  534.06  183.53
  -8   4  -6  522.69  182.46
   8  -4   7   44.06   17.41
  -8   4  -7   48.73   17.08
   8  -4   8  130.23   45.00
  -8   4  -8  132.24   45.12
   8  -4   9    4.02    8.34
  -8   4  -9    4.13    8.29
   8  -3   0    6.14    7.47
   8  -3   0    9.52    7.95
   8  -3   0    8.13    6.10
   8  -3   0    7.02    5.23
  -8   3   0    4.55    7.10
  -8   3   0    9.28    9.18
  -8   3   0    6.44    6.28
  -8   3   0    4.05    6.91
   8  -3   1 1322.54  488.30
   8  -3   1 1628.06  488.61
   8  -3   1 1632.78  484.10
   8  -3   1 1467.94  483.80
  -8   3  -1 1363.07  488.43
  -8   3  -1 1426.02  488.54
  -8   3  -1 1454.88  484.19
   8  -3   2   64.61   23.07
   8  -3   2   54.47   22.96
   8  -3   2   54.98   22.15
  -8   3  -2   86.83   23.53
  -8   3  -2   75.23   22.54
  -8   3  -2   57.93   23.83
   8  -3   3 2027.17  675.65
  -8   3  -3 2065.71  675.88
  -8   3  -3 2006.98  669.70
   8  -3   4   49.98   18.89
   8  -3   4   54.79   18.49
  -8   3  -4   58.79   19.32
  -8   3  -4   39.80   18.56
   8  -3   5  469.84  137.35
   8  -3   5  457.32  135.89
  -8   3  -5  402.22  137.33
  -8   3  -5  303.66  135.69
   8  -3   6  363.26  108.98
  -8   3  -6  389.10  109.24
  -8   3  -6  181.10  107.97
   8  -3   7   64.61   24.21
  -8   3  -7   65.06   24.24
   8  -3   8   42.83   15.55
  -8   3  -8   32.78   15.38
   8  -2   0    8.56    8.69
   8  -2   0   12.31    5.50
  -8   2   0    8.42    7.54
  -8   2   0    9.15    5.64
  -8   2   0    8.14    9.54
   8  -2   1    8.79    6.05
   8  -2   1    4.55    9.54
   8  -2   1    2.73    6.63
   8  -2   1   12.82    6.59
  -8   2  -1    5.72    7.88
  -8   2  -1    8.47    5.61
  -8   2  -1    7.21    6.20
  -8   2  -1    6.06   12.96
   8  -2   2 2481.38  852.28
  -8   2  -2 2104.23  852.29
  -8   2  -2 3088.28  845.02
   8  -2   3  223.34   74.51
   8  -2   3  229.86   73.68
  -8   2  -3  212.28   74.66
  -8   2  -3  214.98   73.90
   8  -2   4  215.14   59.48
   8  -2   4  151.53   58.38
  -8   2  -4  219.17   59.72
  -8   2  -4  133.28   58.43
   8  -2   5  806.77  235.16
   8  -2   5  653.84  233.03
  -8   2  -5  790.16  235.29
  -8   2  -5  552.70  232.92
   8  -2   6   33.74   13.77
  -8   2  -6   33.48   14.41
   8  -2   7   49.72   17.85
  -8   2  -7   39.35   18.07
   8  -2   8  201.83   65.07
  -8   2  -8  173.88   65.60
   8  -1   0   14.46    7.60
   8  -1   0   18.16   10.12
   8  -1   0   14.16    9.59
   8  -1   0   18.00    7.52
  -8   1   0   15.96    8.31
  -8   1   0    6.99   12.57
   8  -1   1 1002.19  357.11
  -8   1  -1 1069.95  360.57
  -8   1  -1 1197.55  357.37
   8  -1   2  152.42   53.47
   8  -1   2  168.86   53.03
  -8   1  -2  150.98   53.66
   8  -1   3  272.02   73.22
   8  -1   3  163.79   71.93
  -8   1  -3  281.26   73.45
  -8   1  -3  164.29   72.33
   8  -1   4  137.12   32.63
   8  -1   4   48.07   31.78
  -8   1  -4  148.99   33.01
  -8   1  -4   78.21   31.85
   8  -1   5   24.86   10.91
  -8   1  -5   17.70   11.16
   8  -1   6   30.49   12.36
  -8   1  -6   24.49   11.75
   8  -1   7   60.76   20.88
  -8   1  -7   45.47   20.14
   8   0   0 2555.75  956.93
   8   0   0 3261.38  948.85
  -8   0   0 2862.53  957.14
  -8   0   0 2901.44  948.79
   8   0   1  405.54  130.72
   8   0   1  415.07  129.56
  -8   0  -1  343.21  130.83
   8   0   2  323.80  105.64
   8   0   2  305.98  104.71
  -8   0  -2  371.48  105.97
  -8   0  -2  250.39  104.62
   8   0   3    5.37    6.69
   8   0   3    1.52    9.24
  -8   0  -3    3.10    7.11
  -8   0  -3    1.07   10.32
   8   0   4  418.99   34.10
   8   0   4  175.67   87.65
  -8   0  -4  439.64   89.57
  -8   0  -4  151.92   87.82
   8   0   5   25.31   13.10
  -8   0  -5   34.26   13.82
   8   0   6  311.00  109.58
  -8   0  -6  341.39  109.77
   8   1   0   48.79   20.82
   8   1   0   74.04   22.32
  -8  -1   0   50.61   21.48
  -8  -1   0   63.44   21.84
   8   1   1  200.66   56.55
   8   1   1  173.18   56.54
  -8  -1  -1  142.65   56.57
  -8  -1  -1  135.39   56.03
   8   1   2  190.33   75.27
   8   1   2  225.11   75.33
  -8  -1  -2  276.57   75.77
  -8  -1  -2  206.97   75.51
  -8  -1  -3  271.69   32.91
   8   1   3  281.23   89.96
   8   1   3  244.33   89.78
   8   1   4    2.16    7.57
  -8  -1  -4   -3.08    8.13
   8   1   5    4.17    8.34
  -8  -1  -5    1.35    9.33
   8   1   6  171.83   55.35
  -8  -1  -6  145.17   55.37
   8   2   0  396.96  133.19
   8   2   0  446.19  132.37
  -8  -2   0  352.75  133.44
   8   2   1  949.19  316.79
  -8  -2  -1  914.60  316.98
  -8  -2  -1  988.70  314.35
   8   2   2    8.04    2.47
   8   2   2   11.07   15.80
  -8  -2  -2   10.84    9.21
   8   2   3   37.55   15.14
  -8  -2  -3   36.71   14.84
  -8  -2  -4  139.92   17.62
   8   2   4  176.80   55.40
   8   2   5  141.25   48.10
  -8  -2  -5  134.49   48.61
   8   3   0  344.44  115.76
   8   3   0  333.33  115.10
  -8  -3   0  355.20  116.00
   8   3   1   88.00   40.06
   8   3   1  149.32   45.01
  -8  -3  -1  127.58   40.81
   8   3   2   55.27   20.50
  -8  -3  -2   53.67   21.33
   8   3   3  351.93  114.62
  -8  -3  -3  325.10  114.83
   8   4   0   57.70   22.95
   8   4   0   69.93   25.05
  -8  -4   0   60.96   23.17
   8   4   1   33.92   14.79
  -8  -4  -1   38.34   16.25
   8   4   2   24.90   12.51
  -8  -4  -2   29.15   12.32
   8   5   0   -1.12   10.73
  -8  -5   0   43.38   11.79
   9 -13   1    0.97   13.98
  -9  13  -1    2.72   27.57
   9 -13   2  150.58   63.20
  -9  13  -2  254.75   69.78
   9 -13   3   78.56   30.14
  -9  13  -3   63.07   38.88
   9 -13   4  426.50  153.14
  -9  13  -4  529.14  156.32
   9 -12   0    1.28    9.84
  -9  12   0   -0.48   18.54
   9 -12   1 1499.47  529.89
  -9  12  -1 1859.85  531.05
   9 -12   2   48.21   20.98
  -9  12  -2   56.49   24.84
   9 -12   3    9.17   42.65
   9 -12   3   73.74   25.72
  -9  12  -3   80.89   29.55
   9 -12   4    4.83   28.34
   9 -12   4   52.11   20.86
  -9  12  -4   50.65   25.57
   9 -12   5   -9.68   62.53
   9 -12   5  256.01   60.27
  -9  12  -5  143.76   63.43
   9 -12   6  184.34   45.07
  -9  12  -6  -10.22   51.10
   9 -11   0   -9.08  365.63
   9 -11   0 1217.06  360.27
  -9  11   0 1317.85  360.89
   9 -11   1    3.06   30.29
   9 -11   1   27.75   13.03
  -9  11  -1   26.92   17.42
   9 -11   2    2.44  267.57
   9 -11   2  866.30  262.72
  -9  11  -2 1054.99  263.78
   9 -11   3    0.73   53.45
   9 -11   3  163.27   49.75
  -9  11  -3  192.43   52.48
   9 -11   4   -3.10  183.02
   9 -11   4  630.32  180.89
  -9  11  -4  756.69  182.61
   9 -11   5   -2.76   15.69
   9 -11   5   -1.10   14.37
  -9  11  -5    2.21   14.07
   9 -11   6   -0.08   19.62
   9 -11   6   67.15   22.79
  -9  11  -6    0.83   26.18
   9 -11   7    7.65   17.60
  -9  11  -7   -2.57   35.60
   9 -10   0   11.48    9.23
  -9  10   0   12.74   12.75
   9 -10   1   -7.37  108.59
   9 -10   1  428.87  105.15
  -9  10  -1  313.77  105.38
   9 -10   2   -6.52   22.82
   9 -10   2   33.21   14.29
  -9  10  -2   41.34   16.22
   9 -10   3    1.67  427.11
   9 -10   3 1437.44  423.43
  -9  10  -3 1928.50  424.26
   9 -10   4   -5.62   19.46
   9 -10   4   45.06   16.57
  -9  10  -4   64.91   21.26
   9 -10   5    1.26   15.33
   9 -10   5   -0.14   10.34
  -9  10  -5   -5.84   15.57
   9 -10   6    1.89   50.25
   9 -10   6  222.49   52.03
   9 -10   7    1.03   27.35
   9 -10   7  156.89   34.15
  -9  10  -7    3.75   35.21
   9 -10   8   -2.60   18.76
   9  -9   0   67.74   35.26
   9  -9   0   75.78   28.34
  -9   9   0   92.87   28.06
   9  -9   1   58.36   28.07
  -9   9  -1   58.88   22.09
   9  -9   2 1369.71  457.23
   9  -9   2 1312.26  452.02
  -9   9  -2 1440.50  452.28
   9  -9   3  143.58   53.14
   9  -9   3  141.28   50.43
  -9   9  -3  162.74   51.28
   9  -9   4   52.35   51.33
   9  -9   4  193.77   50.16
  -9   9  -4  145.67   50.10
   9  -9   5   -2.79   21.71
   9  -9   5   99.29   20.53
  -9   9  -5    3.46   21.29
   9  -9   6   -6.42   12.88
   9  -9   6   22.85   16.77
  -9   9  -6   34.99   28.84
  -9   9  -6   -1.09   18.24
   9  -9   7   -4.05   25.08
   9  -9   7  103.27   31.29
  -9   9  -7  134.93   36.75
  -9   9  -7    2.28   33.15
   9  -9   8    3.37   18.03
  -9   9  -8   76.12   30.55
   9  -8   0   30.45   17.70
   9  -8   0   26.48   10.60
  -9   8   0   20.78   10.51
   9  -8   1 1117.77  365.34
   9  -8   1 1137.72  361.26
  -9   8  -1 1030.03  361.25
   9  -8   2   57.35   30.88
   9  -8   2   89.44   25.52
  -9   8  -2   59.59   25.70
   9  -8   3   14.66   12.51
  -9   8  -3   21.92   24.40
   9  -8   4   75.64   35.60
   9  -8   4  116.95   34.36
  -9   8  -4  110.45   40.35
  -9   8  -4   83.94   34.77
   9  -8   5   32.50   16.27
   9  -8   5    7.07   13.97
  -9   8  -5    8.71   20.12
  -9   8  -5   -3.41   13.18
   9  -8   6    7.89   19.32
  -9   8  -6   12.71   19.96
  -9   8  -6   -3.49   15.86
   9  -8   7  130.85   45.12
   9  -8   7   74.79   44.93
  -9   8  -7  157.91   45.88
   9  -8   8  117.16   46.70
  -9   8  -8  123.03   47.46
   9  -7   0 1295.16  444.24
   9  -7   0 1301.21  439.53
  -9   7   0 1390.75  439.65
   9  -7   1  462.15  150.96
  -9   7  -1  448.94  151.07
   9  -7   2    4.66   13.39
   9  -7   2    5.95    6.01
  -9   7  -2    4.38   22.74
  -9   7  -2    0.45    5.89
   9  -7   3    6.67   18.95
   9  -7   3    0.07    7.03
  -9   7  -3   -6.44   16.07
  -9   7  -3   -0.74    7.20
   9  -7   4  437.83  135.36
   9  -7   4  331.96  132.33
  -9   7  -4  441.85  136.39
  -9   7  -4  435.53  132.81
   9  -7   5   17.53   18.05
  -9   7  -5   37.28   22.92
  -9   7  -5    1.25   14.97
   9  -7   6   17.68   17.81
  -9   7  -6   26.41   23.04
   9  -7   7   91.48   29.48
   9  -7   7   38.39   30.67
  -9   7  -7   79.13   28.45
   9  -7   8  750.90  245.06
  -9   7  -8  708.30  245.24
   9  -6   0    1.60   11.65
   9  -6   0    0.78   10.05
   9  -6   0    6.39    5.02
  -9   6   0    4.76    8.89
  -9   6   0    3.78    6.27
   9  -6   1   62.02   22.11
   9  -6   1   46.67   17.67
  -9   6  -1   55.62   25.52
  -9   6  -1   46.41   18.13
   9  -6   2    2.45   13.47
   9  -6   2    5.18    5.68
  -9   6  -2    9.08   12.73
  -9   6  -2    4.63    6.51
   9  -6   3  299.24   71.16
   9  -6   3  129.34   68.65
  -9   6  -3  397.25   72.55
  -9   6  -3  140.27   68.72
   9  -6   4    9.75   12.03
   9  -6   4    0.11    6.68
  -9   6  -4    4.27   14.08
  -9   6  -4    4.33   11.00
   9  -6   5   70.03   25.96
   9  -6   5   76.85   24.63
  -9   6  -5   94.55   26.39
  -9   6  -5   23.32   26.14
   9  -6   6   11.93   12.55
   9  -6   6    9.27   14.57
  -9   6  -6    3.13   11.27
  -9   6  -6    7.10   16.64
   9  -6   7  557.53  190.91
  -9   6  -7  582.26  191.07
   9  -6   8  108.22   30.92
  -9   6  -8   50.58   29.56
   9  -5   0  216.68   71.77
   9  -5   0  165.38   70.88
   9  -5   0  247.29   69.59
  -9   5   0  132.27   70.77
  -9   5   0  216.92   71.66
  -9   5   0  234.12   69.71
   9  -5   1  309.75  104.96
  -9   5  -1  316.79  106.91
  -9   5  -1  326.91  105.11
   9  -5   2  245.41   81.51
   9  -5   2  225.75   79.70
  -9   5  -2  290.88   81.63
  -9   5  -2  226.72   79.84
   9  -5   3  160.73   46.52
   9  -5   3  113.05   44.16
  -9   5  -3  167.36   46.98
  -9   5  -3  120.62   44.45
   9  -5   4   95.87   35.98
   9  -5   4  101.14   34.45
  -9   5  -4   94.96   36.42
   9  -5   5  591.65  195.62
  -9   5  -5  606.51  195.57
  -9   5  -5  558.67  193.57
   9  -5   6  635.55  153.16
   9  -5   6  328.93  151.00
  -9   5  -6  737.09  153.42
  -9   5  -6  120.93  151.11
   9  -5   7    0.72    5.57
  -9   5  -7    3.26   11.44
   9  -5   8   21.05   13.48
  -9   5  -8   16.45   12.85
   9  -4   0   20.36   10.27
   9  -4   0   23.70   13.61
   9  -4   0   16.20    7.91
  -9   4   0   10.25   10.85
  -9   4   0   15.60   12.97
  -9   4   0   17.22    8.89
   9  -4   1   54.60   20.72
   9  -4   1   52.78   18.18
  -9   4  -1   54.35   20.29
  -9   4  -1   47.73   18.44
   9  -4   2  162.70   55.90
   9  -4   2  162.44   54.96
  -9   4  -2  158.19   56.02
  -9   4  -2  173.49   55.14
   9  -4   3    9.67    7.33
   9  -4   3    8.93    6.30
  -9   4  -3    9.10    9.36
  -9   4  -3    9.79    6.60
   9  -4   4   13.46    8.55
   9  -4   4   17.04   10.16
  -9   4  -4   15.03   10.22
  -9   4  -4   11.87   10.90
   9  -4   5  547.48  177.61
   9  -4   5  562.03  176.43
  -9   4  -5  543.11  177.69
  -9   4  -5  452.87  176.44
   9  -4   6   15.84    9.10
  -9   4  -6   15.60    9.33
   9  -4   7  187.25   63.66
  -9   4  -7  187.42   63.76
   9  -4   8    8.48    9.00
  -9   4  -8    1.88    8.91
   9  -3   0  837.22  296.07
  -9   3   0 1011.68  299.24
  -9   3   0  859.82  296.14
   9  -3   1   10.70   10.55
   9  -3   1    8.29    6.58
  -9   3  -1   15.67   11.05
   9  -3   2  504.47  169.80
   9  -3   2  462.87  167.73
  -9   3  -2  589.92  170.16
   9  -3   3    7.30    8.58
   9  -3   3    5.89    7.93
  -9   3  -3    5.98   10.50
  -9   3  -3    1.63    8.01
   9  -3   4  338.65   96.55
   9  -3   4  232.09   95.02
  -9   3  -4  395.16   96.87
  -9   3  -4  249.35   95.31
   9  -3   5  534.07  129.57
   9  -3   5  258.87  127.74
  -9   3  -5  596.83  129.88
  -9   3  -5  203.03  127.87
   9  -3   6 1013.64  368.89
  -9   3  -6 1217.33  369.15
  -9   3  -7   18.11    6.23
   9  -3   7   13.38    8.35
   9  -2   0    2.37    6.73
   9  -2   0    3.37    7.05
  -9   2   0    4.61    8.04
   9  -2   1   72.74   30.31
   9  -2   1  115.78   30.41
  -9   2  -1   84.17   31.44
  -9   2  -1   77.46   30.39
   9  -2   2  494.07  176.22
   9  -2   2  522.02  174.49
  -9   2  -2  534.30  176.56
  -9   2  -2  570.78  174.76
   9  -2   3  262.10   90.06
   9  -2   3  259.90   89.34
  -9   2  -3  323.91   90.44
  -9   2  -3  231.10   89.36
   9  -2   4   44.26   15.27
   9  -2   4   34.05   16.17
  -9   2  -4   51.38   16.01
  -9   2  -4   27.61   16.26
   9  -2   5  395.96  122.71
  -9   2  -5  327.24  122.86
   9  -2   6   41.40   16.00
  -9   2  -6   30.07   16.19
   9  -1   0   44.81   20.04
   9  -1   0   63.42   20.99
  -9   1   0   53.92   20.30
  -9   1   0   57.64   21.42
   9  -1   1   24.07   11.06
   9  -1   1   35.69   15.30
  -9   1  -1   12.69   11.94
   9  -1   2  473.76  132.36
   9  -1   2  289.85  130.74
  -9   1  -2  478.51  132.58
  -9   1  -2  335.37  131.18
   9  -1   3   95.13   26.37
   9  -1   3   66.37   26.85
  -9   1  -3  105.75   26.93
  -9   1  -3   25.47   26.94
   9  -1   4  794.65  261.31
  -9   1  -4  768.46  261.39
   9  -1   5   12.75    9.06
  -9   1  -5   15.01   10.00
   9  -1   6    1.83    8.98
  -9   1  -6   -0.04    7.17
   9   0   0  241.02   80.27
   9   0   0  260.98   79.73
  -9   0   0  206.09   80.29
   9   0   1  207.00   92.86
   9   0   1  281.59   92.95
  -9   0  -1  307.44   93.44
  -9   0  -1  333.41   93.10
   9   0   2  104.89   27.52
   9   0   2   86.38   30.77
  -9   0  -2   96.40   28.13
  -9   0  -2   -3.70   27.46
   9   0   3 2281.55  627.38
   9   0   3 1390.26  621.57
  -9   0  -3 2165.18  627.52
   9   0   4    6.69    8.95
  -9   0  -4    8.03   10.39
   9   0   5  146.89   56.62
  -9   0  -5  182.55   56.66
   9   1   0  334.87  104.67
   9   1   0  383.07  104.38
  -9  -1   0  245.18  104.64
  -9  -1   0  270.73  103.47
   9   1   1   50.29   16.13
  -9  -1  -1   50.71   17.05
  -9  -1  -1   -2.27   20.82
   9   1   2  425.79  169.68
   9   1   2  738.08  169.80
  -9  -1  -2  802.91  170.59
  -9  -1  -2   -4.07  167.98
   9   1   3   -2.34    9.02
  -9  -1  -3   13.40   11.37
   9   1   4    9.28   60.43
  -9  -1  -4  376.69   62.61
   9   2   0    1.04  122.97
   9   2   0  788.28  124.66
  -9  -2   0  803.23  125.08
  -9  -2   0   -3.10  121.72
   9   2   1    3.68  149.28
   9   2   1  675.64  151.62
  -9  -2  -1  840.19  151.14
   9   2   2   10.69   15.77
  -9  -2  -2   65.14   18.01
   9   2   3   -3.56   10.89
  -9  -2  -3    3.49   11.48
   9   3   0    4.37  285.13
   9   3   0 1563.72  285.90
  -9  -3   0 1451.21  286.99
   9   3   1   -1.28   12.24
  -9  -3  -1   53.23   20.33
  10 -12   0  127.83   48.76
 -10  12   0  173.97   51.73
  10 -12   1   19.94   13.16
 -10  12  -1   14.44   19.69
  10 -12   2   11.99   12.14
 -10  12  -2    3.85   19.39
  10 -12   3   39.42   17.32
 -10  12  -3   52.02   26.57
  10 -12   4  366.15   96.42
 -10  12  -4   89.49   98.37
  10 -11   0    5.45   11.35
 -10  11   0   -0.96   15.01
  10 -11   1   21.26   13.19
 -10  11  -1   19.24   16.89
  10 -11   2   19.52   12.50
 -10  11  -2   15.85   12.91
  10 -11   3  920.41  341.84
 -10  11  -3 1272.91  343.02
  10 -11   4   26.81   13.42
 -10  11  -4    3.33   18.47
  10 -11   5  418.87  100.27
 -10  11  -5    3.44   98.73
  10 -10   0  173.23   59.62
 -10  10   0  181.36   60.43
  10 -10   1    2.40   54.91
  10 -10   1  141.76   39.70
 -10  10  -1  123.26   40.72
  10 -10   2    6.01  336.66
  10 -10   2 1234.36  332.96
 -10  10  -2 1167.05  333.26
  10 -10   3   -7.71   22.29
  10 -10   3   61.76   18.62
 -10  10  -3   45.74   20.58
  10 -10   4    2.52   29.15
  10 -10   4  134.63   26.65
 -10  10  -4    0.79   26.39
  10 -10   5    0.31   17.83
 -10  10  -5   -2.48   21.58
  10  -9   0    9.40   24.03
  10  -9   0    6.15    7.91
 -10   9   0    0.29    9.24
  10  -9   1   -0.43  251.14
  10  -9   1  819.35  247.61
 -10   9  -1  963.76  247.90
  10  -9   2    3.14   40.74
  10  -9   2  141.20   37.40
 -10   9  -2  128.81   38.09
  10  -9   3    0.76   84.38
  10  -9   3  363.16   82.96
 -10   9  -3  239.63   83.07
  10  -9   4    0.49   15.04
  10  -9   4   -0.09   14.68
 -10   9  -4    2.07   11.25
  10  -9   5    5.78   39.07
  10  -9   5  152.86   39.51
 -10   9  -5  312.94   54.26
 -10   9  -5    3.37   39.75
  10  -9   6    2.06   14.71
 -10   9  -6   28.97   33.82
  10  -8   0  847.91  361.66
  10  -8   0 1184.66  356.73
 -10   8   0 1035.42  356.70
  10  -8   1  234.29   83.80
  10  -8   1  271.90   80.80
 -10   8  -1  212.84   80.69
  10  -8   2    4.12  210.43
  10  -8   2  704.71  208.15
 -10   8  -2  851.55  208.42
  10  -8   3   35.07   17.71
 -10   8  -3   57.94   33.76
 -10   8  -3   61.32   19.62
  10  -8   4    7.49  457.54
  10  -8   4 2670.99  454.60
 -10   8  -4 2664.57  460.98
 -10   8  -4    0.51  452.95
  10  -8   5    2.22   19.77
  10  -8   5   39.70   18.41
 -10   8  -5   56.69   26.06
 -10   8  -5   -2.16   17.45
  10  -8   6    1.36   34.18
 -10   8  -6  119.51   32.94
  10  -8   7    7.51   17.24
  10  -7   0   56.75   25.90
  10  -7   0   53.59   18.98
 -10   7   0   52.38   19.40
  10  -7   1  319.60  103.33
  10  -7   1  344.63   99.15
 -10   7  -1  230.60   99.10
  10  -7   2   15.03   14.46
  10  -7   2   12.43    8.00
 -10   7  -2   11.63   22.60
  10  -7   3   16.97  375.01
  10  -7   3 1606.33  371.60
 -10   7  -3 1400.67  376.13
 -10   7  -3 1076.81  371.32
  10  -7   4    3.33   21.28
 -10   7  -4   50.97   22.84
 -10   7  -4   11.67   15.18
  10  -7   5   -4.80   20.10
 -10   7  -5    7.81   24.95
 -10   7  -5    9.61   14.05
 -10   7  -6  167.79   63.19
  10  -7   7    3.65   17.83
 -10   7  -7   14.72   23.18
  10  -6   0  746.35  233.32
  10  -6   0  716.10  229.81
 -10   6   0 1000.40  235.28
 -10   6   0  554.96  229.83
  10  -6   1  138.99   51.47
  10  -6   1  137.36   46.35
 -10   6  -1  148.84   50.98
 -10   6  -1  132.02   46.41
  10  -6   2  117.88   43.26
  10  -6   2  101.45   39.01
 -10   6  -2  166.07   45.46
 -10   6  -2  108.36   39.45
  10  -6   3   -3.09   18.86
  10  -6   3   15.40    8.98
 -10   6  -3   14.90   21.10
 -10   6  -3    0.57    8.66
  10  -6   4   -1.09   14.37
 -10   6  -4    4.78   19.03
 -10   6  -4    4.12   13.18
  10  -6   5    0.60   28.72
  10  -6   5  154.19   29.17
 -10   6  -5  112.71   32.45
 -10   6  -5    8.88   29.97
  10  -6   6    1.74   15.26
 -10   6  -6    4.60   14.28
  10  -5   0  153.85   54.47
  10  -5   0  160.56   50.49
 -10   5   0  137.81   53.83
 -10   5   0  142.46   50.62
  10  -5   1  916.54  375.47
  10  -5   1 1139.43  371.58
 -10   5  -1 1124.43  375.88
 -10   5  -1 1230.79  371.75
  10  -5   2  280.17   95.34
  10  -5   2  283.93   93.06
 -10   5  -2  267.25   95.03
 -10   5  -2  280.86   93.18
  10  -5   3    1.82   17.70
  10  -5   3   58.65   15.19
 -10   5  -3   83.02   22.08
 -10   5  -3    2.33   14.49
  10  -5   4    1.44   25.00
  10  -5   4  114.64   24.35
 -10   5  -4  143.04   27.23
 -10   5  -4   -3.19   23.97
  10  -5   5    3.46   13.82
  10  -5   5    7.65   14.97
 -10   5  -5    8.31   15.27
  10  -5   6    1.40   14.10
 -10   5  -6    8.39   15.43
  10  -4   0  823.41  375.60
  10  -4   0 1315.09  371.95
 -10   4   0 1005.51  375.82
 -10   4   0 1191.02  372.08
  10  -4   1   74.70   30.54
  10  -4   1   86.81   28.60
 -10   4  -1   80.77   32.21
 -10   4  -1   84.58   28.76
  10  -4   2   78.24   38.76
  10  -4   2  128.03   37.69
 -10   4  -2  125.20   39.74
 -10   4  -2  103.88   37.76
  10  -4   3   -1.35    8.76
 -10   4  -3   36.79   11.74
 -10   4  -3    2.13    8.96
  10  -4   4   -1.97    7.56
 -10   4  -4    8.26   12.94
 -10   4  -4    1.34   12.22
  10  -4   5    0.21    9.65
 -10   4  -5   33.97   13.12
  10  -4   6    1.84   13.12
 -10   4  -6   61.88   15.24
  10  -3   0    6.21    9.02
  10  -3   0    4.47    8.04
 -10   3   0    3.83    7.76
 -10   3   0    0.16    7.36
  10  -3   1  268.80   91.52
 -10   3  -1  283.46   91.66
  10  -3   2    0.22   22.71
  10  -3   2  116.84   23.11
 -10   3  -2  121.34   24.64
 -10   3  -2    2.77   22.13
  10  -3   3    2.30   31.87
  10  -3   3  134.07   32.37
 -10   3  -3  247.65   34.35
 -10   3  -3    1.73   30.91
  10  -3   4    1.60   40.16
 -10   3  -4  249.16   42.26
  10  -3   5   -2.20   10.07
 -10   3  -5   39.90   12.13
  10  -2   0   12.99   11.72
  10  -2   0   31.30   13.22
 -10   2   0   10.22   11.78
  10  -2   1   -0.99   13.20
 -10   2  -1   98.24   15.76
 -10   2  -1    3.23   14.11
  10  -2   2   -3.39   23.14
 -10   2  -2    0.61   22.97
  10  -2   3    3.33    9.09
  10  -2   3    6.71   10.51
 -10   2  -3   37.99   12.12
 -10   2  -3    0.87    8.41
  10  -2   4    0.97    9.50
 -10   2  -4    0.55   11.66
  10  -1   0  410.06  136.88
  10  -1   1    0.31   35.09
  10  -1   1  214.87   37.57
 -10   1  -1  189.17   36.50
 -10   1  -1    2.31   34.54
  10  -1   2   -0.11    7.74
  10  -1   2    8.38   11.72
 -10   1  -2    7.87   10.09
 -10   1  -2    2.28    8.29
  10  -1   3    0.32   49.94
 -10   1  -3  336.19   52.24
  10  -1   4   -1.00    8.42
 -10   1  -4   31.23   10.51
  10   0   0    2.60   63.49
  10   0   0  399.63   65.76
 -10   0   0  227.05   64.74
  10   0   1   -0.45   15.41
  10   0   1   71.85   24.34
 -10   0  -1   54.20   18.76
  10   0   2    0.16   44.06
 -10   0  -2  275.42   46.17
  10   0   3    3.89    8.27
 -10   0  -3    5.96   10.87
  10   1   0    1.13   39.43
  10   1   0  230.22   44.13
 -10  -1   0  235.74   42.09
 -10  -1   0   -1.21   41.76
  10   1   1   -3.14    9.38
 -10  -1  -1    0.31   11.50
  10   2   0    3.58   16.26
 -10  -2   0   69.94   19.07
  11 -11   0    3.59    9.24
 -11  11   0   -1.23   13.91
  11 -11   1    6.02    9.57
 -11  11  -1    6.40   14.70
  11 -11   2   22.76   11.53
 -11  11  -2   11.61   16.75
  11 -10   0   22.88   10.68
 -11  10   0   26.29   14.28
  11 -10   1   13.57   11.01
 -11  10  -1   17.86   14.41
  11 -10   2  142.26   50.10
 -11  10  -2  145.25   50.67
  11 -10   3   58.90   17.12
 -11  10  -3   -3.97   16.98
  11  -9   0    6.37    8.91
 -11   9   0    0.63    9.88
  11  -9   1   23.73   11.32
 -11   9  -1   15.55   12.48
 -11   9  -2    4.68   11.61
  11  -9   3   52.56   15.72
 -11   9  -3   -1.92   16.38
  11  -9   4  847.23  170.76
 -11   9  -4   10.24  169.15
  11  -8   0  295.10   88.24
 -11   8   0  230.20   88.11
  11  -8   1    0.77   18.51
  11  -8   1    3.82    7.99
 -11   8  -1    1.25    7.23
  11  -8   2    0.62   19.86
  11  -8   2   11.00    8.37
 -11   8  -2    2.52   10.46
  11  -8   3   -0.76  149.84
 -11   8  -3   -3.16  147.67
  11  -8   4   -9.53   15.44
 -11   8  -4    2.11   18.87
  11  -7   0    8.61   23.98
  11  -7   0   40.54   12.72
 -11   7   0   36.59   13.87
  11  -7   1   19.07    9.52
 -11   7  -1   20.32   12.01
  11  -7   2    7.93   63.37
 -11   7  -2  412.65   74.45
  11  -7   3    4.55   24.37
  11  -7   3    1.50    8.67
 -11   7  -3    5.19   25.11
 -11   7  -3   -1.75   11.18
  11  -7   4  443.06  147.71
  11  -6   0  125.31   68.17
  11  -6   0  184.88   63.88
 -11   6   0  225.99   64.23
  11  -6   1   -3.91   73.98
 -11   6  -1  320.60   75.60
 -11   6  -1  253.40   70.19
  11  -6   2    6.18   24.61
  11  -6   2   57.97   13.37
 -11   6  -2   30.33   33.14
 -11   6  -2    0.71   12.39
  11  -6   3   -2.99   34.03
  11  -6   3  196.81   30.38
 -11   6  -3    2.85   28.20
  11  -6   4    2.93   38.18
 -11   6  -4  201.57   47.26
  11  -5   0  510.81  280.07
  11  -5   0  771.97  276.14
 -11   5   0  967.18  281.51
 -11   5   0 1006.66  276.42
  11  -5   1    2.38   28.69
  11  -5   1   97.11   20.03
 -11   5  -1  102.44   31.80
 -11   5  -1    0.78   19.22
  11  -5   2   -5.24   40.98
 -11   5  -2   -5.53   36.60
  11  -5   3    6.37   10.08
 -11   5  -3   10.20   15.08
 -11   5  -3    2.80    9.67
  11  -5   4    5.25   87.80
 -11   5  -4  507.84   90.06
  11  -4   0    2.98    7.54
 -11   4   0    3.47   17.03
 -11   4   0    1.36    7.04
 -11   4  -1 1080.69  127.32
 -11   4  -1    0.84  121.76
  11  -4   2   -5.31   18.36
  11  -4   2    1.66    9.56
 -11   4  -2    1.17   16.05
  11  -4   3    5.38   37.50
 -11   4  -3  195.38   38.93
  11  -3   0    0.84  105.86
 -11   3   0    0.13  104.13
  11  -3   1   10.20   23.21
 -11   3  -1  169.76   25.25
 -11   3  -1    1.73   21.72
  11  -3   2   -1.23   24.58
  11  -3   2  122.12   24.23
 -11   3  -2  126.33   26.10
 -11   3  -2    4.24   23.19
  11  -2   0   -1.61   12.93
  11  -2   0   40.15   16.78
 -11   2   0   25.40   14.63
  11  -2   1    1.15   36.97
  11  -2   1  193.16   37.76
 -11   2  -1  207.75   39.41
 -11   2  -1   -3.59   35.88
  11  -1   0   -3.41   17.92
 -11   1   0   -0.77   18.89
  12  -9   0  150.00   48.58
 -12   9   0  131.13   49.82
  12  -9   1   16.94   14.93
 -12   9  -1    1.96   13.61
 -12   8   0   26.20   15.61
  12  -8   1    6.26   12.67
 -12   8  -1    1.17   11.42
  12  -7   0   48.63   15.80
 -12   7   0   15.77   14.21
  12  -7   1  105.83   21.20
 -12   7  -1   -4.24   19.95
  12  -6   0    5.86    8.19
 -12   6   0    3.21    9.93
  12  -6   1   83.10   18.84
 -12   6  -1    1.96   17.77
  12  -5   0   13.53    8.05
 -12   5   0    1.78    7.90
  12  -5   1   67.19   15.74
 -12   5  -1   -2.93   14.65
  12  -4   0   68.23   15.36
 -12   4   0   -1.30   14.53
   0   0   0    0.00    0.00

_computing_structure_solution     'SHELXT 2014/5 (Sheldrick, 2014)'
;
_shelx_hkl_checksum              29175
loop_
_space_group_symop_operation_xyz
'x, y, z'
'-x, -y, -z'
loop_
_atom_site_label
_atom_site_type_symbol
_atom_site_fract_x
_atom_site_fract_y
_atom_site_fract_z
_atom_site_U_iso_or_equiv
_atom_site_adp_type
_atom_site_occupancy
_atom_site_site_symmetry_order
_atom_site_calc_flag
_atom_site_refinement_flags_posn
_atom_site_refinement_flags_adp
_atom_site_refinement_flags_occupancy
Pb1 Pb 0.0000 0.0000 0.5000 0.0105(4) Uani 1 2 d S . P
Pb2 Pb 0.5000 0.5000 1.0000 0.0111(4) Uani 1 2 d S . P
I1 I 0.24797(15) -0.08628(14) 0.40896(14) 0.0126(4) Uani 1 1 d . . .
I2 I -0.03706(16) 0.12953(15) 0.31103(14) 0.0150(4) Uani 1 1 d . . .
I3 I 0.25869(15) 0.30428(13) 0.71769(13) 0.0104(4) Uani 1 1 d . . .
I4 I 0.24970(15) 0.58578(15) 1.08295(14) 0.0140(4) Uani 1 1 d . . .
I5 I 0.61892(17) 0.77439(15) 0.95442(14) 0.0164(4) Uani 1 1 d . . .
O1 O 0.2267(17) 0.5566(17) 0.5459(15) 0.0168(19) Uani 1 1 d . . .
N1 N 0.460(2) 0.642(2) 0.5403(19) 0.0168(19) Uani 1 1 d . . .
C1 C 0.366(3) 0.606(2) 0.596(2) 0.0168(19) Uani 1 1 d . . .
H1 H 0.4057 0.6168 0.6769 0.020 Uiso 1 1 calc R U .
C2 C 0.407(3) 0.627(2) 0.415(2) 0.0168(19) Uani 1 1 d . . .
H2A H 0.3138 0.5392 0.3637 0.025 Uiso 1 1 calc R U .
H2B H 0.4828 0.6235 0.3770 0.025 Uiso 1 1 calc R U .
H2C H 0.3883 0.7076 0.4192 0.025 Uiso 1 1 calc R U .
C3 C 0.622(2) 0.710(2) 0.603(2) 0.0168(19) Uani 1 1 d . . .
H3A H 0.6664 0.6600 0.5505 0.025 Uiso 1 1 calc R U .
H3B H 0.6456 0.7057 0.6818 0.025 Uiso 1 1 calc R U .
H3C H 0.6638 0.8085 0.6191 0.025 Uiso 1 1 calc R U .
N2 N 0.027(3) 0.203(2) 0.893(2) 0.027(4) Uani 1 1 d . . .
H2D H -0.0367 0.1781 0.8176 0.040 Uiso 1 1 calc R U .
H2E H 0.0930 0.1654 0.8824 0.040 Uiso 1 1 calc R U .
H2F H 0.0783 0.2984 0.9369 0.040 Uiso 1 1 calc R U .
C4 C -0.063(3) 0.144(3) 0.964(2) 0.027(4) Uani 1 1 d . . .
H4A H -0.1142 0.0409 0.9190 0.040 Uiso 1 1 calc R U .
H4B H -0.1369 0.1810 0.9725 0.040 Uiso 1 1 calc R U .
H4C H 0.0054 0.1744 1.0470 0.040 Uiso 1 1 calc R U .
N3 N 0.430(2) 0.072(2) 0.750(2) 0.018(3) Uani 1 1 d . . .
H3D H 0.3975 0.0396 0.6667 0.027 Uiso 1 1 calc R U .
H3E H 0.5073 0.1608 0.7876 0.027 Uiso 1 1 calc R U .
H3F H 0.3536 0.0757 0.7776 0.027 Uiso 1 1 calc R U .
C5 C 0.481(3) -0.025(2) 0.782(2) 0.018(3) Uani 1 1 d . . .
H5A H 0.5736 -0.0162 0.7654 0.027 Uiso 1 1 calc R U .
H5B H 0.4035 -0.1224 0.7314 0.027 Uiso 1 1 calc R U .
H5C H 0.5004 0.0014 0.8700 0.027 Uiso 1 1 calc R U .
N4 N 0.006(2) 0.571(2) 0.382(2) 0.023(4) Uani 1 1 d . . .
H4D H 0.0179 0.6549 0.3838 0.034 Uiso 1 1 calc R U .
H4E H 0.0945 0.5807 0.4270 0.034 Uiso 1 1 calc R U .
H4F H -0.0643 0.5434 0.4151 0.034 Uiso 1 1 calc R U .
C6 C -0.045(3) 0.460(3) 0.249(3) 0.023(4) Uani 1 1 d . . .
H6A H -0.1336 0.4575 0.1988 0.034 Uiso 1 1 calc R U .
H6B H -0.0688 0.3675 0.2464 0.034 Uiso 1 1 calc R U .
H6C H 0.0358 0.4842 0.2169 0.034 Uiso 1 1 calc R U .
loop_
_atom_site_aniso_label
_atom_site_aniso_U_11
_atom_site_aniso_U_22
_atom_site_aniso_U_33
_atom_site_aniso_U_23
_atom_site_aniso_U_13
_atom_site_aniso_U_12
Pb1 0.0113(7) 0.0050(7) 0.0121(8) 0.0038(6) 0.0017(5) 0.0018(5)
Pb2 0.0108(7) 0.0063(7) 0.0127(8) 0.0042(6) 0.0015(5) 0.0017(5)
I1 0.0128(7) 0.0097(7) 0.0168(8) 0.0076(6) 0.0056(6) 0.0050(5)
I2 0.0141(7) 0.0103(7) 0.0189(8) 0.0106(6) 0.0020(6) 0.0016(5)
I3 0.0105(7) 0.0052(6) 0.0121(7) 0.0046(5) 0.0005(5) 0.0011(5)
I4 0.0128(7) 0.0111(7) 0.0161(8) 0.0055(6) 0.0053(6) 0.0038(6)
I5 0.0202(8) 0.0118(7) 0.0153(8) 0.0093(6) 0.0027(6) 0.0036(6)
O1 0.012(4) 0.013(4) 0.018(5) 0.006(4) 0.002(4) 0.001(3)
N1 0.012(4) 0.013(4) 0.018(5) 0.006(4) 0.002(4) 0.001(3)
C1 0.012(4) 0.013(4) 0.018(5) 0.006(4) 0.002(4) 0.001(3)
C2 0.012(4) 0.013(4) 0.018(5) 0.006(4) 0.002(4) 0.001(3)
C3 0.012(4) 0.013(4) 0.018(5) 0.006(4) 0.002(4) 0.001(3)
N2 0.033(10) 0.013(8) 0.022(9) 0.007(7) -0.004(7) 0.006(7)
C4 0.033(10) 0.013(8) 0.022(9) 0.007(7) -0.004(7) 0.006(7)
N3 0.022(8) 0.012(7) 0.022(8) 0.013(7) 0.006(6) 0.005(6)
C5 0.022(8) 0.012(7) 0.022(8) 0.013(7) 0.006(6) 0.005(6)
N4 0.028(9) 0.018(8) 0.034(10) 0.020(8) 0.020(8) 0.011(7)
C6 0.028(9) 0.018(8) 0.034(10) 0.020(8) 0.020(8) 0.011(7)
loop_
_atom_type_symbol
_atom_type_description
_atom_type_scat_dispersion_real
_atom_type_scat_dispersion_imag
_atom_type_scat_source
C C 0.0070 0.0030 'International Tables Vol C Tables 4.2.6.8 and 6.1.1.4'
H H 0.0000 0.0000 'International Tables Vol C Tables 4.2.6.8 and 6.1.1.4'
N N 0.0130 0.0070 'International Tables Vol C Tables 4.2.6.8 and 6.1.1.4'
O O 0.0210 0.0120 'International Tables Vol C Tables 4.2.6.8 and 6.1.1.4'
I I -0.0340 3.1360 'International Tables Vol C Tables 4.2.6.8 and 6.1.1.4'
Pb Pb -9.9000 4.0740 'International Tables Vol C Tables 4.2.6.8 and 6.1.1.4'
loop_
_geom_angle_atom_site_label_1
_geom_angle_atom_site_label_2
_geom_angle_atom_site_label_3
_geom_angle
_geom_angle_site_symmetry_1
_geom_angle_site_symmetry_3
I2 Pb1 I2 180.00(4) . 2_556
I2 Pb1 I3 91.35(4) . .
I2 Pb1 I3 88.65(5) 2_556 .
I2 Pb1 I3 88.65(4) . 2_556
I2 Pb1 I3 91.35(5) 2_556 2_556
I3 Pb1 I3 180.0 . 2_556
I2 Pb1 I1 88.38(4) . 2_556
I2 Pb1 I1 91.62(4) 2_556 2_556
I3 Pb1 I1 88.72(5) . 2_556
I3 Pb1 I1 91.28(5) 2_556 2_556
I2 Pb1 I1 91.62(4) . .
I2 Pb1 I1 88.38(4) 2_556 .
I3 Pb1 I1 91.28(5) . .
I3 Pb1 I1 88.72(5) 2_556 .
I1 Pb1 I1 180.0 2_556 .
I5 Pb2 I5 180.00(5) 2_667 .
I5 Pb2 I4 89.04(4) 2_667 2_667
I5 Pb2 I4 90.96(4) . 2_667
I5 Pb2 I4 90.96(4) 2_667 .
I5 Pb2 I4 89.04(4) . .
I4 Pb2 I4 180.0 2_667 .
I5 Pb2 I3 87.98(5) 2_667 .
I5 Pb2 I3 92.02(5) . .
I4 Pb2 I3 91.16(5) 2_667 .
I4 Pb2 I3 88.84(5) . .
I5 Pb2 I3 92.02(5) 2_667 2_667
I5 Pb2 I3 87.98(5) . 2_667
I4 Pb2 I3 88.84(5) 2_667 2_667
I4 Pb2 I3 91.16(5) . 2_667
I3 Pb2 I3 180.00(4) . 2_667
Pb1 I3 Pb2 150.09(5) . .
C1 N1 C3 122(2) . .
C1 N1 C2 121.5(19) . .
C3 N1 C2 116.2(19) . .
O1 C1 N1 123(2) . .
O1 C1 H1 118.6 . .
N1 C1 H1 118.6 . .
N1 C2 H2A 109.5 . .
N1 C2 H2B 109.5 . .
H2A C2 H2B 109.5 . .
N1 C2 H2C 109.5 . .
H2A C2 H2C 109.5 . .
H2B C2 H2C 109.5 . .
N1 C3 H3A 109.5 . .
N1 C3 H3B 109.5 . .
H3A C3 H3B 109.5 . .
N1 C3 H3C 109.5 . .
H3A C3 H3C 109.5 . .
H3B C3 H3C 109.5 . .
C4 N2 H2D 109.5 . .
C4 N2 H2E 109.5 . .
H2D N2 H2E 109.5 . .
C4 N2 H2F 109.5 . .
H2D N2 H2F 109.5 . .
H2E N2 H2F 109.5 . .
N2 C4 H4A 109.5 . .
N2 C4 H4B 109.5 . .
H4A C4 H4B 109.5 . .
N2 C4 H4C 109.5 . .
H4A C4 H4C 109.5 . .
H4B C4 H4C 109.5 . .
C5 N3 H3D 109.5 . .
C5 N3 H3E 109.5 . .
H3D N3 H3E 109.5 . .
C5 N3 H3F 109.5 . .
H3D N3 H3F 109.5 . .
H3E N3 H3F 109.5 . .
N3 C5 H5A 109.5 . .
N3 C5 H5B 109.5 . .
H5A C5 H5B 109.5 . .
N3 C5 H5C 109.5 . .
H5A C5 H5C 109.5 . .
H5B C5 H5C 109.5 . .
C6 N4 H4D 109.5 . .
C6 N4 H4E 109.5 . .
H4D N4 H4E 109.5 . .
C6 N4 H4F 109.5 . .
H4D N4 H4F 109.5 . .
H4E N4 H4F 109.5 . .
N4 C6 H6A 109.5 . .
N4 C6 H6B 109.5 . .
H6A C6 H6B 109.5 . .
N4 C6 H6C 109.5 . .
H6A C6 H6C 109.5 . .
H6B C6 H6C 109.5 . .
loop_
_geom_bond_atom_site_label_1
_geom_bond_atom_site_label_2
_geom_bond_distance
_geom_bond_site_symmetry_2
Pb1 I2 3.2099(15) .
Pb1 I2 3.2100(15) 2_556
Pb1 I3 3.239(3) .
Pb1 I3 3.239(3) 2_556
Pb1 I1 3.2499(16) 2_556
Pb1 I1 3.2499(16) .
Pb2 I5 3.2312(17) 2_667
Pb2 I5 3.2312(17) .
Pb2 I4 3.2323(16) 2_667
Pb2 I4 3.2323(16) .
Pb2 I3 3.253(2) .
Pb2 I3 3.253(2) 2_667
O1 C1 1.26(3) .
N1 C1 1.33(3) .
N1 C3 1.46(3) .
N1 C2 1.47(3) .
C1 H1 0.9500 .
C2 H2A 0.9800 .
C2 H2B 0.9800 .
C2 H2C 0.9800 .
C3 H3A 0.9800 .
C3 H3B 0.9800 .
C3 H3C 0.9800 .
N2 C4 1.54(4) .
N2 H2D 0.9100 .
N2 H2E 0.9100 .
N2 H2F 0.9100 .
C4 H4A 0.9800 .
C4 H4B 0.9800 .
C4 H4C 0.9800 .
N3 C5 1.50(3) .
N3 H3D 0.9100 .
N3 H3E 0.9100 .
N3 H3F 0.9100 .
C5 H5A 0.9800 .
C5 H5B 0.9800 .
C5 H5C 0.9800 .
N4 C6 1.51(3) .
N4 H4D 0.9100 .
N4 H4E 0.9100 .
N4 H4F 0.9100 .
C6 H6A 0.9800 .
C6 H6B 0.9800 .
C6 H6C 0.9800 .
loop_
_geom_hbond_atom_site_label_D
_geom_hbond_atom_site_label_H
_geom_hbond_atom_site_label_A
_geom_hbond_distance_DH
_geom_hbond_distance_HA
_geom_hbond_distance_DA
_geom_hbond_angle_DHA
_geom_hbond_site_symmetry_A
N2 H2D I1 0.91 2.76 3.67(2) 175 2_556
N2 H2F I4 0.91 2.76 3.67(2) 175 .
N3 H3D I1 0.91 2.81 3.71(2) 170 .
N3 H3E I4 0.91 2.70 3.60(2) 173 2_667
N4 H4E O1 0.91 1.96 2.81(3) 156 .
N4 H4F O1 0.91 1.92 2.81(3) 167 2_566
loop_
_geom_torsion_atom_site_label_1
_geom_torsion_atom_site_label_2
_geom_torsion_atom_site_label_3
_geom_torsion_atom_site_label_4
_geom_torsion
C3 N1 C1 O1 175(2)
C2 N1 C1 O1 0(4)
