#------------------------------------------------------------------------------
#$Date: 2019-11-08 00:08:02 +0200 (Fri, 08 Nov 2019) $
#$Revision: 224191 $
#$URL: file:///home/coder/svn-repositories/cod/cif/1/55/08/1550823.cif $
#------------------------------------------------------------------------------
#
# This file is available in the Crystallography Open Database (COD),
# http://www.crystallography.net/
#
# All data on this site have been placed in the public domain by the
# contributors.
#
data_1550823
loop_
_publ_author_name
'D'Annibale, Andrea'
'Panetta, Riccardo'
'Tarquini, Ombretta'
'Colapietro, Marcello'
'Quaranta, Simone'
'Cassetta, Alberto'
'Barba, Luisa'
'Chita, Giuseppe'
'Latini, Alessandro'
_publ_section_title
;
 Synthesis, physico-chemical characterization and structure of the elusive
 hydroxylammonium lead iodide perovskite NH<sub>3</sub>OHPbI<sub>3</sub>.
;
_journal_issue                   16
_journal_name_full
'Dalton transactions (Cambridge, England : 2003)'
_journal_page_first              5397
_journal_page_last               5407
_journal_paper_doi               10.1039/c9dt00690g
_journal_volume                  48
_journal_year                    2019
_chemical_formula_moiety         'I3 Pb, C6 H16 O2 S, 1[NH3OH]'
_chemical_formula_sum            'C6 H20 I3 N O3 Pb S'
_chemical_formula_weight         774.18
_chemical_melting_point          353(5)
_chemical_name_systematic        'Hydroxylammonium lead iodide'
_chemical_properties_physical
Air-sensitive,Moisture-sensitive,Hygroscopic,Deliquescent,Heat-sensitive,Oxygen-sensitive
_space_group_crystal_system      orthorhombic
_space_group_IT_number           51
_space_group_name_Hall           '-P 2a 2a'
_space_group_name_H-M_alt        'P m m a'
_symmetry_space_group_name_Hall  '-P 2a 2a'
_symmetry_space_group_name_H-M   'P m m a'
_atom_sites_solution_hydrogens   mixed
_audit_creation_date             2019-03-21
_audit_creation_method
;
Olex2 1.3-dev
(compiled 2019.02.19 svn.r3573 for OlexSys, GUI svn.r5585)
;
_audit_update_record
;
2019-03-28 deposited with the CCDC.    2019-04-01 downloaded from the CCDC.
;
_cell_angle_alpha                90
_cell_angle_beta                 90
_cell_angle_gamma                90
_cell_formula_units_Z            2
_cell_length_a                   7.920(6)
_cell_length_b                   9.030(4)
_cell_length_c                   10.770(2)
_cell_measurement_reflns_used    1364
_cell_measurement_temperature    100
_cell_measurement_theta_max      30.9739
_cell_measurement_theta_min      1.86231
_cell_volume                     770.2(7)
_computing_cell_refinement       'XDS (Kabsch, 2010)'
_computing_data_collection       'XRD1 Beamline control software'
_computing_data_reduction        'XDS (Kabsch, 2010)'
_computing_molecular_graphics    'Olex2 (Dolomanov et al., 2009)'
_computing_publication_material  'Olex2 (Dolomanov et al., 2009)'
_computing_structure_refinement  'ShelXL (Sheldrick, 2015)'
_computing_structure_solution    'Superflip (Palatinus & Chapuis, 2007)'
_diffrn_ambient_temperature      100.0
_diffrn_measured_fraction_theta_full 0.986
_diffrn_measured_fraction_theta_max 0.939
_diffrn_measurement_device       Area
_diffrn_measurement_device_type  'Area detector diffractometer'
_diffrn_measurement_method       \w/2\q
_diffrn_radiation_monochromator  'Si(111) double crystal'
_diffrn_radiation_type           Synchrotron
_diffrn_radiation_wavelength     0.700
_diffrn_reflns_av_R_equivalents  0.0392
_diffrn_reflns_av_unetI/netI     0.0320
_diffrn_reflns_Laue_measured_fraction_full 0.986
_diffrn_reflns_Laue_measured_fraction_max 0.939
_diffrn_reflns_limit_h_max       11
_diffrn_reflns_limit_h_min       -11
_diffrn_reflns_limit_k_max       12
_diffrn_reflns_limit_k_min       -12
_diffrn_reflns_limit_l_max       15
_diffrn_reflns_limit_l_min       -14
_diffrn_reflns_number            6502
_diffrn_reflns_point_group_measured_fraction_full 0.986
_diffrn_reflns_point_group_measured_fraction_max 0.939
_diffrn_reflns_theta_full        24.835
_diffrn_reflns_theta_max         30.974
_diffrn_reflns_theta_min         2.221
_diffrn_source                   synchrotron
_exptl_absorpt_coefficient_mu    17.091
_exptl_absorpt_correction_T_max  1.000
_exptl_absorpt_correction_T_min  0.769
_exptl_absorpt_correction_type   none
_exptl_crystal_colour            'light yellow'
_exptl_crystal_density_diffrn    3.338
_exptl_crystal_density_meas      2.9(5)
_exptl_crystal_density_method    pycnometric
_exptl_crystal_description       polyhedral
_exptl_crystal_F_000             688
_exptl_crystal_recrystallization_method 'vapor diffusion'
_exptl_crystal_size_max          0.07
_exptl_crystal_size_mid          0.05
_exptl_crystal_size_min          0.05
_refine_diff_density_max         1.860
_refine_diff_density_min         -2.248
_refine_diff_density_rms         0.286
_refine_ls_extinction_coef       0.0061(10)
_refine_ls_extinction_expression Fc^*^=kFc[1+0.001xFc^2^\l^3^/sin(2\q)]^-1/4^
_refine_ls_extinction_method     'SHELXL-2018/3 (Sheldrick 2018)'
_refine_ls_goodness_of_fit_ref   1.151
_refine_ls_hydrogen_treatment    constr
_refine_ls_matrix_type           full
_refine_ls_number_parameters     56
_refine_ls_number_reflns         1360
_refine_ls_number_restraints     20
_refine_ls_restrained_S_all      1.155
_refine_ls_R_factor_all          0.0413
_refine_ls_R_factor_gt           0.0394
_refine_ls_shift/su_max          0.000
_refine_ls_shift/su_mean         0.000
_refine_ls_structure_factor_coef Fsqd
_refine_ls_weighting_details
'w=1/[\s^2^(Fo^2^)+(0.0747P)^2^+2.9611P] where P=(Fo^2^+2Fc^2^)/3'
_refine_ls_weighting_scheme      calc
_refine_ls_wR_factor_gt          0.1239
_refine_ls_wR_factor_ref         0.1259
_reflns_Friedel_coverage         0.000
_reflns_number_gt                1271
_reflns_number_total             1360
_reflns_threshold_expression     'I > 2\s(I)'
_cod_data_source_file            c9dt00690g2.cif
_cod_data_source_block           i
_cod_depositor_comments          'Adding full bibliography for 1550823.cif.'
_cod_original_cell_volume        770.245(6)
_cod_database_code               1550823
_shelx_shelxl_version_number     2018/3
_shelx_space_group_comment
;
The symmetry employed for this shelxl refinement is uniquely defined
by the following loop, which should always be used as a source of
symmetry information in preference to the above space-group names.
They are only intended as comments.
;
_shelx_estimated_absorpt_t_max   0.280
_shelx_estimated_absorpt_t_min   0.280
_olex2_refinement_description
;
1. Fixed Uiso
 At 1.2 times of:
  All C(H,H) groups, All C(H,H,H,H) groups, All N(H,H,H) groups
 At 1.5 times of:
  All O(H) groups
2. Restrained distances
 O2-N3
 1.415 with sigma of 0.001
 S4-C2AA \\sim S4-C2AB
 with sigma of 0.01
 C2AA-C1 \\sim C2AB-C1
 with sigma of 0.01
3. Rigid bond restraints
 S4, C2AA, C1
 with sigma for 1-2 distances of 0.01 and sigma for 1-3 distances of 0.01
 S4, C2AB, C1
 with sigma for 1-2 distances of 0.01 and sigma for 1-3 distances of 0.01
4. Uiso/Uaniso restraints and constraints
C2AB \\sim C2AA: within 2A with sigma of 0.01 and sigma for terminal atoms of
0.02
Uanis(C2AB) \\sim Ueq: with sigma of 0.01 and sigma for terminal atoms of 0.02
5. Others
 Fixed Sof: H1BD(0.5) H1BC(0.5) H1AB(0.5) H1AA(0.5) C2AB(0.5) H2AA(0.5)
 H2AB(0.5) C2AA(0.5) H2AC(0.5) H2AD(0.5) O2(0.25) H2(0.25) N3(0.25) H3A(0.25)
 H3B(0.25) H3C(0.25)
 Fixed U12: Pb1(0) I2(0) I3(0) S4(0) C1(0) O3(0)
 Fixed U13: I2(0) I3(0) S4(0) O3(0)
 Fixed U23: Pb1(0) I2(0) S4(0) C1(0)
 Fixed Uiso: O2(0.07) N3(0.07)
 Fixed X: Pb1(1) I2(0.75) I3(0.75) S4(0.75) O3(0.75)
 Fixed Y: Pb1(-0.5) I2(-0.5) S4(0) C1(0)
 Fixed Z: Pb1(0)
6.a Riding coordinates:
 O2(H2), N3(H3A,H3B,H3C)
6.b Secondary CH2 refined with riding coordinates:
 C1(H1BD,H1BC), C1(H1AB,H1AA), C2AB(H2AA,H2AB), C2AA(H2AC,H2AD)
;
_smtbx_masks_void_probe_radius   1.2
_smtbx_masks_void_truncation_radius 1.2
_shelx_res_file
;
TITL I OLEX2: imported from CIF
    i.res
    created by SHELXL-2018/3 at 10:49:14 on 21-Mar-2019
CELL 0.7 7.92 9.03 10.77 90 90 90
ZERR 2 0.00004 0.00004 0.00005 0 0 0
LATT 1
SYMM 0.5-X,-Y,+Z
SYMM 0.5+X,-Y,-Z
SYMM -X,+Y,-Z
SFAC C H I N O Pb S
DISP C 0.003 0.0016
DISP H 0 0
DISP I -0.463 1.7726
DISP O 0.0105 0.0059
DISP Pb -3.0345 9.9071
DISP S 0.1218 0.1207
UNIT 12 40 6 2 6 2 2
DFIX 1.415 0.001 O2 N3
SADI 0.01 S4 C2AA S4 C2AB
SADI 0.01 C2AA C1 C2AB C1
DELU S4 C2AA C1
DELU S4 C2AB C1
SIMU 0.01 0.02 2 C2AB C2AA
ISOR 0.01 0.02 C2AB

L.S. 4
PLAN  2
SIZE 0.1 0.1 0.1
TEMP -173.15
MORE -1
BOND $H
CONF
fmap 2
acta
OMIT 0 1 1
OMIT 0 0 1
OMIT 2 1 2
OMIT 1 0 2
REM <olex2.extras>
REM <HklSrc "%.\\I_sq.hkl">
REM </olex2.extras>

WGHT    0.074700    2.961100
EXTI    0.006137
FVAR       3.37123
PB1   6   11.000000    9.500000   10.000000    10.25000    0.02219    0.04216 =
         0.03318   10.00000    0.00146  -10.00000
I2    3   10.750000    9.500000    0.234124    10.25000    0.03288    0.06194 =
         0.03069   10.00000   10.00000  -10.00000
I3    3   10.750000   -0.261834   -0.124460    10.50000    0.03072    0.04650 =
         0.05642    0.01415  -10.00000  -10.00000
S4    7   10.750000   10.000000    0.403191    10.25000    0.06530    0.09861 =
         0.04377   10.00000   10.00000  -10.00000
C1    1    0.846046   10.000000    0.173401    10.50000    0.03785    0.08861 =
         0.06554   10.00000    0.00588   10.00000
PART -1
AFIX  23
H1BD  2    0.887508    0.102986    0.165396    10.50000   -1.20000
H1BC  2    0.887507   -0.056907    0.100988    10.50000   -1.20000
AFIX  23
PART 0
PART -2
H1AB  2    0.884254    0.078281    0.115501    10.50000   -1.20000
H1AA  2    0.884254   -0.095924    0.138878    10.50000   -1.20000
AFIX   0
PART 0
O3    5   10.750000    0.113908    0.481004    10.50000    0.14102    0.18893 =
         0.11414   -0.08241  -10.00000  -10.00000
PART -1
C2AB  1    0.916303   -0.068460    0.292876    10.50000    0.09196    0.09168 =
         0.08400   -0.00037    0.00126    0.00239
AFIX  23
H2AA  2    1.029715   -0.029600    0.313669    10.50000   -1.20000
H2AB  2    0.919877   -0.177944    0.288842    10.50000   -1.20000
AFIX   0
PART 0
PART -2
C2AA  1    0.937080    0.023692    0.297513    10.50000    0.10094    0.08867 =
         0.07890   -0.00032    0.00467    0.00337
AFIX  23
H2AC  2    0.987135    0.123857    0.303971    10.50000   -1.20000
H2AD  2    1.025056   -0.052100    0.312542    10.50000   -1.20000
AFIX   0

PART 0
PART -1
O2    5    0.478421    0.367481    0.467380    10.25000   10.07000
AFIX   3
H2    2    0.441901    0.453381    0.454100    10.25000   -1.50000
AFIX   0
N3    4    0.609429    0.379086    0.556199    10.25000   10.07000
AFIX   3
H3A   2    0.681589    0.303836    0.537710    10.25000   -1.20000
H3B   2    0.658459    0.467136    0.536489    10.25000   -1.20000
H3C   2    0.585229    0.377356    0.638800    10.25000   -1.20000
AFIX   0
HKLF 4




REM  I OLEX2: imported from CIF
REM wR2 = 0.1259, GooF = S = 1.151, Restrained GooF = 1.155 for all data
REM R1 = 0.0394 for 1271 Fo > 4sig(Fo) and 0.0413 for all 1360 data
REM 56 parameters refined using 20 restraints

END

WGHT      0.0747      2.9559

REM Highest difference peak  1.860,  deepest hole -2.248,  1-sigma level  0.286
Q1    1   0.7500  0.5000  0.7558  10.25000  0.05    1.86
Q2    1   0.7500 -0.2660  0.1245  10.50000  0.05    1.56
;
_shelx_res_checksum              44797
_platon_squeeze_void_probe_radius 1.20
_iucr_refine_reflections_details
;
# Data was input as F-squared 
# punching LIST  6 as LIST  6 with all keys set 
# NBGNXT=    36 
#LIST   6 
READ NCOEF= 8 TYPE=FIX, F'S = FSQ UNIT=DATA, CHECK=NO L30=NO ARCH=NO 
STORE  NCOEF= 6 
OUTPUT INDICES     /FO/        SIGMA(/FO/) RATIO/JCODE CORRECTIONS SERIAL 
CONT 
INPUT  H           K           L           /FO/        SIGMA(/FO/) JCODE 
CONT   CORRECTIONS SERIAL 
FOR (I4,I4,I4,F10.2,F8.2,F4.0,F7.4,F7.0) 
END 
   0   0   1 159116.00 8663.64  0. 1.0000     0. 
   0   0   2  69507.01 3796.71  0. 1.0000     0. 
   0   0  -2  70158.01 3830.69  0. 1.0000     0. 
   0   0   3  15572.00  872.03  0. 1.0000     0. 
   0   0  -3  14510.00  812.00  0. 1.0000     0. 
   0   0   4  29955.00 1671.86  0. 1.0000     0. 
   0   0   4  34060.00 1883.35  0. 1.0000     0. 
   0   0   5  42129.00 2337.20  0. 1.0000     0. 
   0   0   5  42299.00 2335.22  0. 1.0000     0. 
   0   0   7 190174.9810394.00  0. 1.0000     0. 
   0   0   8 307756.9716829.00  0. 1.0000     0. 
   0   0   8 334654.0018259.00  0. 1.0000     0. 
   0   0  10  17041.00  988.96  0. 1.0000     0. 
   0   0  11    837.20  156.43  0. 1.0000     0. 
   0   0  11   1186.30  158.92  0. 1.0000     0. 
   0   0  13  17404.00 1002.83  0. 1.0000     0. 
   0   0  13  17019.00  994.90  0. 1.0000     0. 
   0   0  14   4612.11  336.07  0. 1.0000     0. 
   0   0  15   2304.64  269.25  0. 1.0000     0. 
   0   0  15   2552.38  220.98  0. 1.0000     0. 
   0  -1   0 218573.0011894.00  0. 1.0000     0. 
   0   1   1 149603.00 8142.69  0. 1.0000     0. 
   0   1  -1 149857.98 8159.67  0. 1.0000     0. 
   0   1   2  58352.00 3187.99  0. 1.0000     0. 
   0  -1   2  55181.00 3018.12  0. 1.0000     0. 
   0  -1  -2  61382.00 3352.21  0. 1.0000     0. 
   0   1  -2  53624.00 2938.84  0. 1.0000     0. 
   0   1   3 112910.01 6155.15  0. 1.0000     0. 
   0  -1   3 108946.99 5956.96  0. 1.0000     0. 
   0  -1  -3 110476.00 6039.07  0. 1.0000     0. 
   0   1  -3 109173.01 5965.45  0. 1.0000     0. 
   0   1   4 355889.0019371.00  0. 1.0000     0. 
   0  -1   4 342582.0018664.00  0. 1.0000     0. 
   0  -1  -4 366931.0019986.00  0. 1.0000     0. 
   0   1  -4 349943.0019057.00  0. 1.0000     0. 
   0   1   5 196036.0010679.00  0. 1.0000     0. 
   0  -1   5 175962.00 9609.28  0. 1.0000     0. 
   0  -1   5 199235.0010881.00  0. 1.0000     0. 
   0  -1  -5 212739.9811625.00  0. 1.0000     0. 
   0   1   6  23579.00 1310.59  0. 1.0000     0. 
   0  -1   6  22780.00 1292.18  0. 1.0000     0. 
   0  -1   6  26045.00 1484.71  0. 1.0000     0. 
   0  -1  -6  24238.00 1395.24  0. 1.0000     0. 
   0   1   7  30408.00 1686.01  0. 1.0000     0. 
   0  -1   7  31115.00 1743.77  0. 1.0000     0. 
   0  -1   7  30040.00 1690.83  0. 1.0000     0. 
   0  -1  -7  27845.00 1574.74  0. 1.0000     0. 
   0   1   8 135192.02 7386.74  0. 1.0000     0. 
   0   1   8 158041.00 8643.82  0. 1.0000     0. 
   0  -1   8 135617.02 7432.04  0. 1.0000     0. 
   0  -1   8 135504.00 7432.04  0. 1.0000     0. 
   0   1   9 130040.00 7131.93  0. 1.0000     0. 
   0   1   9 136127.00 7443.37  0. 1.0000     0. 
   0  -1   9 116024.99 6361.83  0. 1.0000     0. 
   0  -1   9 134173.00 7372.59  0. 1.0000     0. 
   0   1  10   5155.71  355.89  0. 1.0000     0. 
   0  -1  10   5430.35  370.89  0. 1.0000     0. 
   0   1  11   6211.77  426.95  0. 1.0000     0. 
   0   1  11   6772.36  453.00  0. 1.0000     0. 
   0  -1  11   5821.06  383.92  0. 1.0000     0. 
   0   1  12  24003.00 1374.29  0. 1.0000     0. 
   0   1  12  21651.00 1252.55  0. 1.0000     0. 
   0  -1  12  23196.00 1337.77  0. 1.0000     0. 
   0  -1  12  20292.00 1154.87  0. 1.0000     0. 
   0   1  13  33267.00 1876.27  0. 1.0000     0. 
   0   1  13  28052.00 1581.82  0. 1.0000     0. 
   0  -1  13  32248.00 1807.19  0. 1.0000     0. 
   0  -1  13  27950.00 1577.86  0. 1.0000     0. 
   0   1  14   8720.26  572.76  0. 1.0000     0. 
   0  -1  14   7250.84  457.81  0. 1.0000     0. 
   0  -1  14   9244.04  592.30  0. 1.0000     0. 
   0   1  15    875.42  123.64  0. 1.0000     0. 
   0   1  15    686.30  204.56  0. 1.0000     0. 
   0  -1  15    676.67  224.92  0. 1.0000     0. 
   0  -1  15    792.75  120.75  0. 1.0000     0. 
   0  -2   0 159428.00 8689.12  0. 1.0000     0. 
   0   2   1   4034.54  260.25  0. 1.0000     0. 
   0  -2   1   4184.59  274.18  0. 1.0000     0. 
   0  -2  -1   4136.46  262.54  0. 1.0000     0. 
   0   2  -1   3977.91  266.99  0. 1.0000     0. 
   0   2   2  16229.00  913.08  0. 1.0000     0. 
   0  -2   2  17259.00  966.59  0. 1.0000     0. 
   0   2  -2  17582.00  984.43  0. 1.0000     0. 
   0   2   3 454699.0024740.00  0. 1.0000     0. 
   0  -2   3 439128.0323901.00  0. 1.0000     0. 
   0  -2  -3 419592.0022834.00  0. 1.0000     0. 
   0   2  -3 462343.9725167.00  0. 1.0000     0. 
   0   2   4 882785.0648018.00  0. 1.0000     0. 
   0  -2   4 840316.0045725.00  0. 1.0000     0. 
   0  -2  -4 931200.0050679.00  0. 1.0000     0. 
   0   2  -4 843148.0045895.00  0. 1.0000     0. 
   0   2   5 554643.0030181.00  0. 1.0000     0. 
   0  -2   5 503397.0027421.00  0. 1.0000     0. 
   0  -2  -5 540770.0029445.00  0. 1.0000     0. 
   0   2  -5 515288.0028061.00  0. 1.0000     0. 
   0   2   6  29417.00 1639.01  0. 1.0000     0. 
   0  -2  -6  32276.00 1823.89  0. 1.0000     0. 
   0   2   7   1812.85  192.75  0. 1.0000     0. 
   0  -2   7   2073.89  212.94  0. 1.0000     0. 
   0  -2  -7   2241.50  278.45  0. 1.0000     0. 
   0   2   8  12421.00  743.49  0. 1.0000     0. 
   0  -2   8  12800.00  766.70  0. 1.0000     0. 
   0  -2   8  12404.00  774.63  0. 1.0000     0. 
   0   2   9  19898.00 1148.36  0. 1.0000     0. 
   0  -2   9  17189.00  997.17  0. 1.0000     0. 
   0  -2   9  19097.00 1114.38  0. 1.0000     0. 
   0  -2  -9  18018.00 1088.05  0. 1.0000     0. 
   0   2  10  22766.00 1307.19  0. 1.0000     0. 
   0   2  10  25456.00 1449.89  0. 1.0000     0. 
   0  -2  10  20241.00 1180.92  0. 1.0000     0. 
   0  -2  10  20719.00 1187.71  0. 1.0000     0. 
   0   2  11  19867.00 1153.74  0. 1.0000     0. 
   0   2  11  16169.00  958.38  0. 1.0000     0. 
   0  -2  11  16781.00  973.39  0. 1.0000     0. 
   0   2  12  69960.01 3873.16  0. 1.0000     0. 
   0  -2  12  62457.00 3454.13  0. 1.0000     0. 
   0  -2  12  58692.00 3284.25  0. 1.0000     0. 
   0   2  13  45413.00 2541.05  0. 1.0000     0. 
   0   2  13  51416.00 2868.06  0. 1.0000     0. 
   0  -2  13  53681.00 2964.32  0. 1.0000     0. 
   0   2  14   6310.87  457.53  0. 1.0000     0. 
   0  -2  14   6670.44  450.45  0. 1.0000     0. 
   0   2  15    147.34  213.45  0. 1.0000     0. 
   0   2  15    157.28   98.19  0. 1.0000     0. 
   0  -2  15     29.16  214.16  0. 1.0000     0. 
   0  -3   0 179077.00 9765.00  0. 1.0000     0. 
   0   3   0 186183.0010159.00  0. 1.0000     0. 
   0  -3   1 166591.00 9088.33  0. 1.0000     0. 
   0  -3  -1 162825.00 8878.81  0. 1.0000     0. 
   0   3  -1 158720.00 8669.30  0. 1.0000     0. 
   0   3   2  46319.00 2556.06  0. 1.0000     0. 
   0  -3   2  47990.00 2648.36  0. 1.0000     0. 
   0   3  -2  48584.00 2690.54  0. 1.0000     0. 
   0   3   3 147367.00 8046.42  0. 1.0000     0. 
   0  -3   3 155945.00 8524.91  0. 1.0000     0. 
   0  -3  -3 147876.00 8069.07  0. 1.0000     0. 
   0   3  -3 152633.00 8340.88  0. 1.0000     0. 
   0   3   4 420441.0322888.00  0. 1.0000     0. 
   0  -3   4 432899.0323582.00  0. 1.0000     0. 
   0  -3  -4 403454.0021951.00  0. 1.0000     0. 
   0   3  -4 435447.0323720.00  0. 1.0000     0. 
   0   3   5 144394.00 7887.87  0. 1.0000     0. 
   0  -3   5 144167.00 7870.89  0. 1.0000     0. 
   0  -3  -5 149150.00 8204.97  0. 1.0000     0. 
   0   3  -5 152321.00 8338.04  0. 1.0000     0. 
   0   3   6  19912.00 1137.88  0. 1.0000     0. 
   0  -3   6  17823.00 1011.61  0. 1.0000     0. 
   0  -3  -6  21367.00 1249.72  0. 1.0000     0. 
   0  -3   7   6585.50  414.21  0. 1.0000     0. 
   0  -3  -7   6644.95  509.06  0. 1.0000     0. 
   0   3  -7   6545.86  401.19  0. 1.0000     0. 
   0  -3   8  79189.99 4357.30  0. 1.0000     0. 
   0  -3   8  75283.00 4144.96  0. 1.0000     0. 
   0  -3  -8  79275.00 4425.25  0. 1.0000     0. 
   0   3   9  90770.01 4994.33  0. 1.0000     0. 
   0  -3   9  91421.01 5070.78  0. 1.0000     0. 
   0  -3   9  81540.00 4484.71  0. 1.0000     0. 
   0   3  10  13310.00  814.84  0. 1.0000     0. 
   0  -3  10  13649.00  854.47  0. 1.0000     0. 
   0  -3  10  12234.00  729.05  0. 1.0000     0. 
   0  -3 -10  14026.00  985.84  0. 1.0000     0. 
   0   3  11  10818.00  695.92  0. 1.0000     0. 
   0  -3  11  11271.00  671.29  0. 1.0000     0. 
   0  -3 -11   9249.71  665.34  0. 1.0000     0. 
   0   3  12  29643.00 1683.46  0. 1.0000     0. 
   0  -3  12  25263.00 1423.55  0. 1.0000     0. 
   0   3  13  21461.00 1216.59  0. 1.0000     0. 
   0   3  13  24221.00 1404.59  0. 1.0000     0. 
   0  -3  13  21897.00 1298.70  0. 1.0000     0. 
   0   3  14   3663.64  277.86  0. 1.0000     0. 
   0   3  14   4490.37  389.58  0. 1.0000     0. 
   0  -3  14   4306.34  320.21  0. 1.0000     0. 
   0  -3  14   4436.58  291.05  0. 1.0000     0. 
   0   3  15    321.63  114.89  0. 1.0000     0. 
   0   3  15    280.49  232.45  0. 1.0000     0. 
   0  -4   0 960361.0052237.00  0. 1.0000     0. 
   0   4   0 999999.0054417.00  0. 1.0000     0. 
   0   4   1 511607.9727854.00  0. 1.0000     0. 
   0  -4   1 502548.0027350.00  0. 1.0000     0. 
   0  -4  -1 510192.0327763.00  0. 1.0000     0. 
   0   4  -1 510192.0327789.00  0. 1.0000     0. 
   0   4   2  12888.00  763.31  0. 1.0000     0. 
   0  -4   2  13604.00  793.03  0. 1.0000     0. 
   0  -4  -2  14570.00  840.03  0. 1.0000     0. 
   0   4  -2  12633.00  750.28  0. 1.0000     0. 
   0   4   3   6364.66  420.44  0. 1.0000     0. 
   0  -4   3   6735.55  433.75  0. 1.0000     0. 
   0   4  -3   6336.35  394.96  0. 1.0000     0. 
   0   4   4   8660.81  540.49  0. 1.0000     0. 
   0  -4   4   9416.75  577.58  0. 1.0000     0. 
   0  -4  -4   9388.44  563.70  0. 1.0000     0. 
   0   4  -4   8816.53  549.26  0. 1.0000     0. 
   0   4   5  33607.00 1884.20  0. 1.0000     0. 
   0   4  -5  37146.00 2087.77  0. 1.0000     0. 
   0   4   6  10779.00  659.68  0. 1.0000     0. 
   0  -4   6  13355.00  781.14  0. 1.0000     0. 
   0  -4  -6  11687.00  778.31  0. 1.0000     0. 
   0   4   7  84088.00 4637.59  0. 1.0000     0. 
   0  -4   7  93630.01 5150.05  0. 1.0000     0. 
   0  -4  -7  86325.00 4798.98  0. 1.0000     0. 
   0   4  -7 103113.99 5668.17  0. 1.0000     0. 
   0  -4   8 214269.0011721.00  0. 1.0000     0. 
   0  -4  -8 207474.0011435.00  0. 1.0000     0. 
   0   4  -8 204048.0211144.00  0. 1.0000     0. 
   0   4   9 116563.00 6409.96  0. 1.0000     0. 
   0  -4   9 117780.01 6475.08  0. 1.0000     0. 
   0   4  -9 107728.99 5903.17  0. 1.0000     0. 
   0   4  10  21809.00 1278.03  0. 1.0000     0. 
   0  -4  10  19924.00 1163.08  0. 1.0000     0. 
   0  -4 -10  24165.00 1552.94  0. 1.0000     0. 
   0   4  11    448.47  214.16  0. 1.0000     0. 
   0  -4  11    352.77  232.42  0. 1.0000     0. 
   0  -4  11    528.03  149.46  0. 1.0000     0. 
   0  -4 -11    720.55  405.72  0. 1.0000     0. 
   0   4  12   4340.31  392.70  0. 1.0000     0. 
   0  -4  12   3904.30  412.51  0. 1.0000     0. 
   0  -4  12   4940.54  355.32  0. 1.0000     0. 
   0  -4 -12   4340.31  531.14  0. 1.0000     0. 
   0   4  13   8782.55  614.10  0. 1.0000     0. 
   0  -4  13   7499.99  563.42  0. 1.0000     0. 
   0  -4  13   9561.15  574.18  0. 1.0000     0. 
   0   4  14   2529.73  213.96  0. 1.0000     0. 
   0   4  14   2497.73  322.48  0. 1.0000     0. 
   0  -4  14   2052.94  220.87  0. 1.0000     0. 
   0  -5   0 286240.0315609.00  0. 1.0000     0. 
   0   5   0 324179.0017684.00  0. 1.0000     0. 
   0   5   1 187457.0010255.00  0. 1.0000     0. 
   0  -5   1 180662.00 9866.92  0. 1.0000     0. 
   0  -5  -1 179700.00 9813.13  0. 1.0000     0. 
   0   5  -1 187939.0010280.00  0. 1.0000     0. 
   0  -5   2  19901.00 1141.28  0. 1.0000     0. 
   0  -5  -2  20413.00 1169.87  0. 1.0000     0. 
   0   5  -2  20277.00 1169.02  0. 1.0000     0. 
   0   5   3  19292.00 1128.25  0. 1.0000     0. 
   0  -5   3  20144.00 1157.42  0. 1.0000     0. 
   0   5  -3  18649.00 1070.21  0. 1.0000     0. 
   0   5   4  98160.00 5402.03  0. 1.0000     0. 
   0  -5  -4 103736.99 5690.82  0. 1.0000     0. 
   0   5  -4 105916.99 5818.23  0. 1.0000     0. 
   0   5   5  48443.00 2709.51  0. 1.0000     0. 
   0  -5   5  51302.00 2851.07  0. 1.0000     0. 
   0  -5  -5  49802.00 2763.87  0. 1.0000     0. 
   0   5   6  30719.00 1751.98  0. 1.0000     0. 
   0  -5   6  34088.00 1918.46  0. 1.0000     0. 
   0  -5  -6  34400.00 2065.68  0. 1.0000     0. 
   0   5  -6  33465.00 1889.86  0. 1.0000     0. 
   0   5   7  30096.00 1721.12  0. 1.0000     0. 
   0  -5   7  34315.00 1929.22  0. 1.0000     0. 
   0  -5  -7  31172.00 1856.17  0. 1.0000     0. 
   0   5  -7  37203.00 2081.82  0. 1.0000     0. 
   0   5   8  91619.00 5065.11  0. 1.0000     0. 
   0  -5   8 103397.01 5682.33  0. 1.0000     0. 
   0  -5  -8 100170.01 5574.74  0. 1.0000     0. 
   0   5  -8  98839.01 5433.18  0. 1.0000     0. 
   0   5   9  59088.00 3304.07  0. 1.0000     0. 
   0  -5  -9  68828.01 3980.74  0. 1.0000     0. 
   0   5  -9  56172.00 3100.22  0. 1.0000     0. 
   0   5  10   4292.18  402.89  0. 1.0000     0. 
   0  -5 -10   5345.41  649.21  0. 1.0000     0. 
   0   5  11    800.40  252.15  0. 1.0000     0. 
   0  -5  11    700.74  281.45  0. 1.0000     0. 
   0  -5  11   1013.87  162.85  0. 1.0000     0. 
   0  -5 -11    988.96  504.25  0. 1.0000     0. 
   0   5  12   7160.24  556.91  0. 1.0000     0. 
   0  -5  12   7800.11  612.68  0. 1.0000     0. 
   0  -5 -12   6483.57  821.63  0. 1.0000     0. 
   0   5  13  14111.00  914.78  0. 1.0000     0. 
   0  -5  13  13757.00  902.60  0. 1.0000     0. 
   0  -5  13  15447.00  896.38  0. 1.0000     0. 
   0  -5 -13  13276.00 1077.58  0. 1.0000     0. 
   0   5  14   6469.42  540.20  0. 1.0000     0. 
   0  -6   0  26611.00 1515.85  0. 1.0000     0. 
   0   6   1   5671.00  429.22  0. 1.0000     0. 
   0  -6  -1   5121.74  373.73  0. 1.0000     0. 
   0   6  -1   4954.69  385.33  0. 1.0000     0. 
   0   6   2  13511.00  841.45  0. 1.0000     0. 
   0  -6   2  13457.00  809.17  0. 1.0000     0. 
   0  -6  -2  14516.00  876.84  0. 1.0000     0. 
   0   6  -2  14949.00  901.47  0. 1.0000     0. 
   0   6   3 129502.00 7129.10  0. 1.0000     0. 
   0  -6   3 128396.99 7041.33  0. 1.0000     0. 
   0  -6  -3 138278.02 7584.93  0. 1.0000     0. 
   0   6  -3 123669.01 6780.85  0. 1.0000     0. 
   0   6   4 297848.0016266.00  0. 1.0000     0. 
   0  -6   4 299829.9716365.00  0. 1.0000     0. 
   0   6  -4 291336.0015903.00  0. 1.0000     0. 
   0   6   5 195640.0010722.00  0. 1.0000     0. 
   0  -6   5 206455.0011288.00  0. 1.0000     0. 
   0  -6  -5 198103.0210832.00  0. 1.0000     0. 
   0   6  -5 197423.0210818.00  0. 1.0000     0. 
   0   6   6  17132.00 1048.70  0. 1.0000     0. 
   0  -6   6  19253.00 1127.12  0. 1.0000     0. 
   0  -6  -6  18423.00 1133.63  0. 1.0000     0. 
   0   6  -6  15470.00  919.31  0. 1.0000     0. 
   0   6   7   1556.06  302.94  0. 1.0000     0. 
   0  -6  -7   2177.23  477.63  0. 1.0000     0. 
   0   6  -7   1793.88  214.64  0. 1.0000     0. 
   0   6   8   5775.76  477.92  0. 1.0000     0. 
   0  -6   8   6415.62  449.04  0. 1.0000     0. 
   0  -6  -8   5271.80  588.62  0. 1.0000     0. 
   0   6   9   8015.28  608.72  0. 1.0000     0. 
   0  -6   9   8725.93  559.46  0. 1.0000     0. 
   0  -6  -9   7763.30  743.49  0. 1.0000     0. 
   0   6  -9   8997.73  555.78  0. 1.0000     0. 
   0   6  10   5379.38  497.73  0. 1.0000     0. 
   0  -6  10   5345.41  372.03  0. 1.0000     0. 
   0  -6 -10   5209.51  682.05  0. 1.0000     0. 
   0   6 -10   5407.70  343.15  0. 1.0000     0. 
   0   6  11   8020.94  608.15  0. 1.0000     0. 
   0  -6  11   8264.43  519.53  0. 1.0000     0. 
   0  -6  11   7015.85  540.77  0. 1.0000     0. 
   0  -6 -11   7567.94  915.63  0. 1.0000     0. 
   0   6  12  25575.00 1542.75  0. 1.0000     0. 
   0  -6  12  22551.00 1450.45  0. 1.0000     0. 
   0  -6  12  27115.00 1526.90  0. 1.0000     0. 
   0  -6 -12  22712.00 1730.75  0. 1.0000     0. 
   0   6  13  22557.00 1382.50  0. 1.0000     0. 
   0  -6  13  28397.00 1743.77  0. 1.0000     0. 
   0  -6  13  25156.00 1419.87  0. 1.0000     0. 
   0  -6 -13  26181.00 2052.09  0. 1.0000     0. 
   0  -7   0  30747.00 1753.40  0. 1.0000     0. 
   0   7   0  30776.00 1789.35  0. 1.0000     0. 
   0   7   1  24740.00 1471.12  0. 1.0000     0. 
   0  -7   1  23647.00 1367.21  0. 1.0000     0. 
   0  -7  -1  25917.00 1496.03  0. 1.0000     0. 
   0   7  -1  25824.00 1543.03  0. 1.0000     0. 
   0   7   2  16668.00 1046.43  0. 1.0000     0. 
   0  -7   2  15433.00  926.95  0. 1.0000     0. 
   0  -7  -2  16730.00 1009.91  0. 1.0000     0. 
   0   7  -2  17163.00 1043.32  0. 1.0000     0. 
   0  -7  -3  72904.99 4045.86  0. 1.0000     0. 
   0   7  -3  73782.00 4079.84  0. 1.0000     0. 
   0   7   4 153651.98 8462.62  0. 1.0000     0. 
   0  -7   4 151019.00 8278.59  0. 1.0000     0. 
   0   7   5  59938.00 3380.52  0. 1.0000     0. 
   0  -7   5  61070.00 3394.67  0. 1.0000     0. 
   0  -7  -5  58550.00 3270.10  0. 1.0000     0. 
   0   7  -5  58069.00 3241.79  0. 1.0000     0. 
   0   7   6   6112.68  520.67  0. 1.0000     0. 
   0  -7   6   6894.10  470.55  0. 1.0000     0. 
   0  -7  -6   7587.76  546.72  0. 1.0000     0. 
   0   7   7    897.22  312.00  0. 1.0000     0. 
   0  -7   7   1118.63  203.03  0. 1.0000     0. 
   0  -7  -7   1220.27  538.22  0. 1.0000     0. 
   0   7  -7   1096.54  190.20  0. 1.0000     0. 
   0   7   8  13400.00  913.08  0. 1.0000     0. 
   0  -7   8  15917.00  968.29  0. 1.0000     0. 
   0  -7  -8  13502.00 1069.93  0. 1.0000     0. 
   0   7  -8  14128.00  853.62  0. 1.0000     0. 
   0   7   9  20419.00 1321.35  0. 1.0000     0. 
   0  -7   9  23228.00 1330.97  0. 1.0000     0. 
   0  -7  -9  23482.00 1574.18  0. 1.0000     0. 
   0   7  -9  22373.00 1273.22  0. 1.0000     0. 
   0   7  10   8352.20  674.12  0. 1.0000     0. 
   0  -7  10   8994.89  565.68  0. 1.0000     0. 
   0  -7 -10   8674.96 1065.12  0. 1.0000     0. 
   0   7 -10   8372.02  506.51  0. 1.0000     0. 
   0   7  11   7216.87  614.38  0. 1.0000     0. 
   0  -7  11   7123.44  463.19  0. 1.0000     0. 
   0  -7 -11   6945.07  901.19  0. 1.0000     0. 
   0   7 -11   9116.64  533.97  0. 1.0000     0. 
   0   7  12  10971.00  851.92  0. 1.0000     0. 
   0  -7  12  10572.00  631.65  0. 1.0000     0. 
   0  -7  12  10385.00  853.34  0. 1.0000     0. 
   0  -7 -12  10040.00 1429.78  0. 1.0000     0. 
   0  -8   0 190542.9810444.00  0. 1.0000     0. 
   0   8   0 195695.9810753.00  0. 1.0000     0. 
   0   8   1  87796.99 4898.07  0. 1.0000     0. 
   0  -8   1  83352.00 4617.78  0. 1.0000     0. 
   0  -8  -1  88533.00 4903.73  0. 1.0000     0. 
   0   8  -1  88505.00 4909.40  0. 1.0000     0. 
   0   8   2  14250.00  947.34  0. 1.0000     0. 
   0  -8  -2  14875.00  936.30  0. 1.0000     0. 
   0   8  -2  14394.00  936.01  0. 1.0000     0. 
   0   8   3   2148.64  379.67  0. 1.0000     0. 
   0  -8   3   2444.22  285.39  0. 1.0000     0. 
   0  -8  -3   2355.04  355.61  0. 1.0000     0. 
   0   8   4   5778.59  548.41  0. 1.0000     0. 
   0  -8   4   5738.95  429.78  0. 1.0000     0. 
   0  -8  -4   5557.75  485.84  0. 1.0000     0. 
   0   8  -4   5954.13  432.33  0. 1.0000     0. 
   0   8   5   6661.94  597.96  0. 1.0000     0. 
   0  -8   5   6911.09  480.75  0. 1.0000     0. 
   0  -8  -5   6039.07  530.86  0. 1.0000     0. 
   0   8  -5   6761.04  479.61  0. 1.0000     0. 
   0   8   6   3289.92  441.39  0. 1.0000     0. 
   0  -8   6   3479.61  321.35  0. 1.0000     0. 
   0  -8  -6   3541.90  383.35  0. 1.0000     0. 
   0   8  -6   3924.12  318.52  0. 1.0000     0. 
   0   8   7  17220.00 1146.66  0. 1.0000     0. 
   0  -8  -7  17208.00 1435.16  0. 1.0000     0. 
   0   8  -7  18559.00 1102.21  0. 1.0000     0. 
   0   8   8  52746.00 3052.09  0. 1.0000     0. 
   0  -8   8  51529.00 2868.06  0. 1.0000     0. 
   0  -8  -8  49094.00 2989.80  0. 1.0000     0. 
   0   8  -8  50679.00 2827.29  0. 1.0000     0. 
   0  -8   9  36891.00 2069.65  0. 1.0000     0. 
   0  -8  -9  38194.00 2459.51  0. 1.0000     0. 
   0   8  -9  30804.00 1735.28  0. 1.0000     0. 
   0   8  10   7027.17  664.78  0. 1.0000     0. 
   0  -8 -10   7865.22 1120.04  0. 1.0000     0. 
   0   8 -10   5999.43  379.11  0. 1.0000     0. 
   0   8  11    684.03  381.65  0. 1.0000     0. 
   0  -8  11    399.21  151.44  0. 1.0000     0. 
   0  -8 -11    607.87  832.95  0. 1.0000     0. 
   0   8 -11    662.23   83.27  0. 1.0000     0. 
   0  -8  12    936.86  413.93  0. 1.0000     0. 
   0  -9   0  83182.00 4637.59  0. 1.0000     0. 
   0   9   0  85276.99 4807.47  0. 1.0000     0. 
   0   9   1  44706.00 2600.51  0. 1.0000     0. 
   0  -9  -1  44054.00 2518.12  0. 1.0000     0. 
   0   9  -1  45017.00 2573.33  0. 1.0000     0. 
   0   9   2   5809.73  577.58  0. 1.0000     0. 
   0  -9   2   5560.58  462.91  0. 1.0000     0. 
   0  -9  -2   5399.20  508.49  0. 1.0000     0. 
   0   9   3   2267.55  421.86  0. 1.0000     0. 
   0  -9   3   2209.51  308.89  0. 1.0000     0. 
   0  -9  -3   2806.06  401.76  0. 1.0000     0. 
   0   9  -3   1956.40  262.71  0. 1.0000     0. 
   0  -9   4   8374.85  577.58  0. 1.0000     0. 
   0  -9  -4   9195.91  704.13  0. 1.0000     0. 
   0   9  -4   8270.09  558.32  0. 1.0000     0. 
   0   9   5   7961.49  706.68  0. 1.0000     0. 
   0  -9   5   7579.27  533.69  0. 1.0000     0. 
   0   9  -5   7429.21  528.03  0. 1.0000     0. 
   0   9   6   7862.39  704.42  0. 1.0000     0. 
   0  -9  -6   7856.73  648.36  0. 1.0000     0. 
   0   9  -6   8309.73  552.09  0. 1.0000     0. 
   0   9   7  15563.00 1108.15  0. 1.0000     0. 
   0  -9   7  14337.00  873.72  0. 1.0000     0. 
   0  -9  -7  14459.00 1473.95  0. 1.0000     0. 
   0   9   8  23567.00 1538.22  0. 1.0000     0. 
   0  -9   8  21888.00 1268.40  0. 1.0000     0. 
   0  -9  -8  22851.00 1746.60  0. 1.0000     0. 
   0   9  -8  24986.00 1449.04  0. 1.0000     0. 
   0  -9   9  12848.00  782.28  0. 1.0000     0. 
   0  -9  -9  15787.00 1507.93  0. 1.0000     0. 
   0   9  -9  12661.00  748.30  0. 1.0000     0. 
   0  -9  10    754.53  171.06  0. 1.0000     0. 
   0   9 -10    538.79  101.95  0. 1.0000     0. 
   0  -9  11    189.44  146.74  0. 1.0000     0. 
   0   9 -11    135.67   79.22  0. 1.0000     0. 
   0  10   0   4031.71  432.33  0. 1.0000     0. 
   0  10   1   2504.53  473.10  0. 1.0000     0. 
   0 -10   1   2245.47  359.85  0. 1.0000     0. 
   0 -10  -1   1949.04  382.50  0. 1.0000     0. 
   0  10   2   3162.51  497.45  0. 1.0000     0. 
   0 -10   2   3391.84  402.89  0. 1.0000     0. 
   0 -10  -2   3674.97  491.22  0. 1.0000     0. 
   0  10  -2   3292.75  437.99  0. 1.0000     0. 
   0  10   3  16433.00 1145.53  0. 1.0000     0. 
   0 -10   3  16651.00 1038.79  0. 1.0000     0. 
   0 -10  -3  16903.00 1125.71  0. 1.0000     0. 
   0  10  -3  16642.00 1028.03  0. 1.0000     0. 
   0  10   4  37004.00 2254.81  0. 1.0000     0. 
   0 -10   4  34824.00 1993.20  0. 1.0000     0. 
   0 -10  -4  37316.00 2211.21  0. 1.0000     0. 
   0  10  -4  34824.00 1985.84  0. 1.0000     0. 
   0  10   5  27129.00 1740.66  0. 1.0000     0. 
   0 -10  -5  28129.00 1739.24  0. 1.0000     0. 
   0  10  -5  26130.00 1530.86  0. 1.0000     0. 
   0  10   6   5280.29  659.40  0. 1.0000     0. 
   0 -10   6   5133.06  411.66  0. 1.0000     0. 
   0 -10  -6   5651.18  703.00  0. 1.0000     0. 
   0  10   7   1411.10  496.60  0. 1.0000     0. 
   0 -10   7    730.18  199.29  0. 1.0000     0. 
   0  10  -7   1282.84  189.10  0. 1.0000     0. 
   0 -10   9    624.29  188.36  0. 1.0000     0. 
   0  10  -9   1018.69  155.63  0. 1.0000     0. 
   0 -10  10    141.45  174.12  0. 1.0000     0. 
   0  10 -10    590.88  130.86  0. 1.0000     0. 
   0 -11   0   1989.52  412.23  0. 1.0000     0. 
   0  11   1   1598.53  399.21  0. 1.0000     0. 
   0 -11   1   1889.30  411.66  0. 1.0000     0. 
   0  11  -1   1535.96  419.59  0. 1.0000     0. 
   0  11   2   3128.54  552.94  0. 1.0000     0. 
   0 -11   2   2699.88  391.28  0. 1.0000     0. 
   0 -11  -2   3137.03  547.85  0. 1.0000     0. 
   0  11  -2   2692.52  363.53  0. 1.0000     0. 
   0  11   3  11945.00  952.43  0. 1.0000     0. 
   0 -11   3  12055.00  828.14  0. 1.0000     0. 
   0 -11  -3  11750.00  905.72  0. 1.0000     0. 
   0  11  -3  11554.00  757.64  0. 1.0000     0. 
   0  11   4  21503.00 1457.81  0. 1.0000     0. 
   0 -11  -4  18310.00 1258.78  0. 1.0000     0. 
   0  11  -4  20314.00 1232.73  0. 1.0000     0. 
   0 -11   5   9357.29  667.04  0. 1.0000     0. 
   0  11  -5   8779.72  609.57  0. 1.0000     0. 
   0 -11   6    905.15  263.56  0. 1.0000     0. 
   0  11  -6    778.03  175.99  0. 1.0000     0. 
   0  11  -7    156.54  144.65  0. 1.0000     0. 
   0 -11   8    582.39  239.64  0. 1.0000     0. 
   0  11  -8    868.06  173.19  0. 1.0000     0. 
   0 -12   0  13700.00 1024.06  0. 1.0000     0. 
   0  12   0  12169.00  985.28  0. 1.0000     0. 
   0 -12   1   7952.99  725.08  0. 1.0000     0. 
   0  12  -1   7126.27  671.86  0. 1.0000     0. 
   0 -12   2   2217.44  430.63  0. 1.0000     0. 
   0  12  -2   2189.41  332.11  0. 1.0000     0. 
   0 -12   3   1126.84  410.82  0. 1.0000     0. 
   0  12  -3    838.90  241.73  0. 1.0000     0. 
   0 -12   4   1151.47  378.54  0. 1.0000     0. 
   0  12  -4    831.26  239.89  0. 1.0000     0. 
   0 -12   5    692.52  361.83  0. 1.0000     0. 
   0  12  -5    609.85  189.89  0. 1.0000     0. 
   0  12  -6    351.08  166.90  0. 1.0000     0. 
   1   0   0     58.15   54.36  0. 1.0000     0. 
   1   0   1    403.74   55.32  0. 1.0000     0. 
  -1   0   1    234.77   76.98  0. 1.0000     0. 
   1   0  -1    316.25   62.74  0. 1.0000     0. 
  -1   0  -1    209.71   41.70  0. 1.0000     0. 
  -1   0   2 274376.9714949.00  0. 1.0000     0. 
   1   0  -2 284823.9715510.00  0. 1.0000     0. 
  -1   0  -2 233040.9812704.00  0. 1.0000     0. 
   1   0   3 379388.0320668.00  0. 1.0000     0. 
  -1   0   3 334937.0018236.00  0. 1.0000     0. 
  -1   0   3 332106.0018092.00  0. 1.0000     0. 
  -1   0  -3 359569.0319587.00  0. 1.0000     0. 
   1   0   4  26563.00 1458.38  0. 1.0000     0. 
  -1   0   4  26444.00 1503.11  0. 1.0000     0. 
  -1   0  -4  29134.00 1615.23  0. 1.0000     0. 
   1   0   5 205804.0011212.00  0. 1.0000     0. 
  -1   0   5 237118.0012950.00  0. 1.0000     0. 
  -1   0   5 192355.0010529.00  0. 1.0000     0. 
  -1   0  -5 187570.9810235.00  0. 1.0000     0. 
  -1   0   6 190713.0010425.00  0. 1.0000     0. 
  -1   0   6 184711.0010110.00  0. 1.0000     0. 
   1   0   7   1458.38  123.05  0. 1.0000     0. 
  -1   0   7   1935.45  196.01  0. 1.0000     0. 
   1   0   8   6823.32  426.10  0. 1.0000     0. 
  -1   0   8   6956.39  471.40  0. 1.0000     0. 
   1   0   9   4714.04  310.02  0. 1.0000     0. 
   1   0   9   4261.04  287.94  0. 1.0000     0. 
  -1   0   9   4261.04  330.12  0. 1.0000     0. 
  -1   0   9   3731.59  358.15  0. 1.0000     0. 
   1   0  10   4929.21  330.69  0. 1.0000     0. 
   1   0  10   4362.96  293.60  0. 1.0000     0. 
  -1   0  10   3805.21  388.17  0. 1.0000     0. 
  -1   0  10   4844.28  343.43  0. 1.0000     0. 
   1   0  11  13146.00  774.63  0. 1.0000     0. 
  -1   0  11  12251.00  819.93  0. 1.0000     0. 
  -1   0  11  13163.00  808.32  0. 1.0000     0. 
   1   0  12   7652.88  481.60  0. 1.0000     0. 
  -1   0  12   7941.67  518.69  0. 1.0000     0. 
   1   0  13   6104.18  397.23  0. 1.0000     0. 
   1   0  13   7508.49  471.12  0. 1.0000     0. 
  -1   0  13   7718.00  494.05  0. 1.0000     0. 
   1   0  14   9300.67  565.97  0. 1.0000     0. 
   1   0  14   8363.53  516.14  0. 1.0000     0. 
  -1   0  14   9796.14  637.03  0. 1.0000     0. 
  -1   0  14   9578.13  614.10  0. 1.0000     0. 
   1   0  15    401.75  155.49  0. 1.0000     0. 
   1   0  15    265.52   96.12  0. 1.0000     0. 
  -1   0  15    347.11  129.81  0. 1.0000     0. 
  -1   0  15    654.59  284.82  0. 1.0000     0. 
   1  -1   0     22.52   65.09  0. 1.0000     0. 
  -1   1   0     74.09   79.59  0. 1.0000     0. 
   1  -1   1  10971.00  611.55  0. 1.0000     0. 
  -1  -1  -1  11450.00  650.91  0. 1.0000     0. 
   1   1   1  11031.00  633.07  0. 1.0000     0. 
  -1  -1   1  10116.00  591.17  0. 1.0000     0. 
   1  -1  -1   9476.21  543.60  0. 1.0000     0. 
  -1   1  -1  10340.00  570.22  0. 1.0000     0. 
   1  -1   2  15954.00  883.35  0. 1.0000     0. 
  -1   1   2  15510.00  877.41  0. 1.0000     0. 
  -1  -1  -2  15835.00  880.24  0. 1.0000     0. 
   1   1   2  15340.00  858.72  0. 1.0000     0. 
  -1  -1   2  12656.00  746.89  0. 1.0000     0. 
  -1   1  -2  13392.00  743.20  0. 1.0000     0. 
   1  -1   3 144875.00 7941.67  0. 1.0000     0. 
   1  -1   3 127434.99 6990.37  0. 1.0000     0. 
  -1   1   3 123952.00 6772.36  0. 1.0000     0. 
   1   1  -3 142695.00 7808.60  0. 1.0000     0. 
  -1  -1  -3 150056.02 8173.83  0. 1.0000     0. 
   1   1   3 143092.00 7800.11  0. 1.0000     0. 
  -1  -1   3 144875.00 7919.02  0. 1.0000     0. 
   1  -1  -3 139467.98 7638.72  0. 1.0000     0. 
   1  -1   4    288.79   63.48  0. 1.0000     0. 
  -1   1   4    164.89  107.33  0. 1.0000     0. 
  -1  -1  -4    595.41  108.04  0. 1.0000     0. 
  -1  -1   4    862.97  136.10  0. 1.0000     0. 
   1  -1  -4    612.40  144.90  0. 1.0000     0. 
   1  -1   5  36098.00 1986.69  0. 1.0000     0. 
   1  -1   5  36721.00 2022.65  0. 1.0000     0. 
  -1   1   5  34315.00 1928.37  0. 1.0000     0. 
   1   1  -5  44111.00 2448.19  0. 1.0000     0. 
  -1  -1  -5  34286.00 1900.34  0. 1.0000     0. 
   1   1   5  36098.00 1987.26  0. 1.0000     0. 
  -1  -1   5  40091.00 2236.97  0. 1.0000     0. 
   1  -1  -5  32248.00 1809.74  0. 1.0000     0. 
   1  -1   6  19881.00 1115.80  0. 1.0000     0. 
   1  -1   6  17033.00  961.78  0. 1.0000     0. 
  -1   1   6  19615.00 1156.28  0. 1.0000     0. 
  -1   1   6  19850.00 1155.15  0. 1.0000     0. 
  -1  -1  -6  18533.00 1053.51  0. 1.0000     0. 
   1   1   6  18998.00 1062.57  0. 1.0000     0. 
  -1  -1   6  18689.00 1086.64  0. 1.0000     0. 
  -1  -1   6  16849.00  981.31  0. 1.0000     0. 
   1  -1  -6  17947.00 1036.81  0. 1.0000     0. 
   1  -1   7  15300.00  871.46  0. 1.0000     0. 
   1  -1   7  15167.00  882.78  0. 1.0000     0. 
  -1   1   7  15345.00  937.43  0. 1.0000     0. 
  -1   1   7  18533.00 1078.14  0. 1.0000     0. 
  -1  -1  -7  15260.00  914.78  0. 1.0000     0. 
   1   1   7  15235.00  863.82  0. 1.0000     0. 
  -1  -1   7  14912.00  926.39  0. 1.0000     0. 
   1  -1   8  25512.00 1409.12  0. 1.0000     0. 
   1  -1   8  22313.00 1251.13  0. 1.0000     0. 
  -1  -1  -8  23967.00 1368.06  0. 1.0000     0. 
   1   1   8  26959.00 1504.81  0. 1.0000     0. 
  -1  -1   8  22967.00 1334.37  0. 1.0000     0. 
  -1  -1   8  25742.00 1517.84  0. 1.0000     0. 
   1  -1   9   9377.11  565.12  0. 1.0000     0. 
   1  -1   9   9051.52  526.61  0. 1.0000     0. 
  -1   1   9  10558.00  658.83  0. 1.0000     0. 
   1   1   9   9572.47  573.90  0. 1.0000     0. 
   1   1   9  10722.00  630.24  0. 1.0000     0. 
   1  -1  10   8768.39  516.42  0. 1.0000     0. 
   1  -1  10   6650.62  419.88  0. 1.0000     0. 
  -1   1  10   6894.10  451.87  0. 1.0000     0. 
  -1   1  10   7129.10  478.48  0. 1.0000     0. 
   1   1  10   7499.99  471.12  0. 1.0000     0. 
   1   1  10   6945.07  426.10  0. 1.0000     0. 
  -1  -1  10   6630.80  481.88  0. 1.0000     0. 
  -1  -1  10   6854.47  453.85  0. 1.0000     0. 
   1  -1  11   2665.34  220.24  0. 1.0000     0. 
  -1   1  11   2283.69  249.89  0. 1.0000     0. 
   1  -1  12   3680.63  271.94  0. 1.0000     0. 
   1  -1  12   2804.36  210.79  0. 1.0000     0. 
  -1   1  12   3321.06  309.74  0. 1.0000     0. 
   1   1  12   2477.63  209.12  0. 1.0000     0. 
   1   1  12   3437.14  279.22  0. 1.0000     0. 
  -1  -1  12   3309.74  436.58  0. 1.0000     0. 
  -1  -1  12   3040.77  279.59  0. 1.0000     0. 
   1  -1  13     58.98   87.66  0. 1.0000     0. 
   1  -1  13     61.44  140.68  0. 1.0000     0. 
  -1   1  13    176.08  111.21  0. 1.0000     0. 
  -1   1  13     10.20  214.18  0. 1.0000     0. 
   1   1  13    213.14   87.06  0. 1.0000     0. 
   1   1  13     -5.86  154.70  0. 1.0000     0. 
  -1  -1  13    -47.40  159.03  0. 1.0000     0. 
  -1  -1  13    227.63  150.26  0. 1.0000     0. 
   1  -1  14   4195.92  285.39  0. 1.0000     0. 
   1  -1  14   3221.97  242.55  0. 1.0000     0. 
  -1   1  14   4244.05  384.77  0. 1.0000     0. 
  -1   1  14   3822.19  293.88  0. 1.0000     0. 
   1   1  14   3417.32  286.24  0. 1.0000     0. 
   1   1  14   3482.44  245.36  0. 1.0000     0. 
  -1  -1  14   3842.01  339.47  0. 1.0000     0. 
  -1   1  15    230.92  111.01  0. 1.0000     0. 
  -1   1  15     41.87  275.42  0. 1.0000     0. 
   1   1  15    107.50   80.58  0. 1.0000     0. 
   1   1  15     23.73  173.47  0. 1.0000     0. 
  -1  -1  15    181.43  110.90  0. 1.0000     0. 
  -1  -1  15    110.62  231.12  0. 1.0000     0. 
   1   2   0    147.45  113.17  0. 1.0000     0. 
  -1  -2   0    266.76  105.10  0. 1.0000     0. 
   1  -2   0    157.50   74.35  0. 1.0000     0. 
  -1   2   0    123.41   79.70  0. 1.0000     0. 
   1   2   1 567950.0030917.00  0. 1.0000     0. 
  -1  -2   1 574178.0631257.00  0. 1.0000     0. 
   1  -2  -1 560588.0030521.00  0. 1.0000     0. 
  -1   2  -1 540203.0029388.00  0. 1.0000     0. 
   1  -2   2 302944.0316498.00  0. 1.0000     0. 
  -1   2   2 287371.9715646.00  0. 1.0000     0. 
   1   2  -2 296149.0016152.00  0. 1.0000     0. 
  -1  -2  -2 303510.0016526.00  0. 1.0000     0. 
   1   2   2 311721.0316976.00  0. 1.0000     0. 
  -1  -2   2 279557.9715226.00  0. 1.0000     0. 
   1  -2  -2 297565.0016212.00  0. 1.0000     0. 
  -1   2  -2 307191.0316727.00  0. 1.0000     0. 
   1  -2   3  18924.00 1047.85  0. 1.0000     0. 
  -1   2   3  18760.00 1049.83  0. 1.0000     0. 
   1   2  -3  15849.00  932.61  0. 1.0000     0. 
  -1  -2  -3  19615.00 1095.98  0. 1.0000     0. 
   1   2   3  19071.00 1073.89  0. 1.0000     0. 
  -1  -2   3  15821.00  916.19  0. 1.0000     0. 
  -1   2  -3  16062.00  896.09  0. 1.0000     0. 
   1  -2   4  13831.00  772.37  0. 1.0000     0. 
  -1   2   4  11611.00  664.49  0. 1.0000     0. 
  -1  -2  -4  12356.00  700.73  0. 1.0000     0. 
   1   2   4  12936.00  739.81  0. 1.0000     0. 
  -1  -2   4  13621.00  792.75  0. 1.0000     0. 
  -1   2  -4  15198.00  853.06  0. 1.0000     0. 
  -1   2   5   6659.11  402.04  0. 1.0000     0. 
  -1  -2  -5   6902.60  416.76  0. 1.0000     0. 
   1   2   5   7757.64  464.04  0. 1.0000     0. 
   1  -2  -5   6956.39  496.32  0. 1.0000     0. 
   1  -2   6  37231.00 2054.36  0. 1.0000     0. 
   1  -2   6  31427.00 1752.26  0. 1.0000     0. 
  -1   2   6  32135.00 1786.24  0. 1.0000     0. 
   1   2  -6  37457.00 2084.37  0. 1.0000     0. 
  -1  -2  -6  31767.00 1797.28  0. 1.0000     0. 
   1   2   6  34966.00 1937.43  0. 1.0000     0. 
  -1  -2   6  37203.00 2088.62  0. 1.0000     0. 
   1  -2  -6  32673.00 1892.98  0. 1.0000     0. 
   1  -2   7 104530.01 5724.80  0. 1.0000     0. 
   1  -2   7 102237.00 5600.22  0. 1.0000     0. 
  -1   2   7 104671.01 5733.29  0. 1.0000     0. 
   1   2  -7 100678.99 5529.44  0. 1.0000     0. 
  -1  -2  -7 107927.01 5951.30  0. 1.0000     0. 
  -1  -2   7 100509.99 5535.10  0. 1.0000     0. 
   1  -2   8   8284.25  498.87  0. 1.0000     0. 
  -1   2   8   7550.96  478.48  0. 1.0000     0. 
   1   2   8   6718.57  432.90  0. 1.0000     0. 
  -1  -2   8   8638.16  595.13  0. 1.0000     0. 
   1  -2  -8   7986.97  552.94  0. 1.0000     0. 
   1  -2   9  22013.00 1266.14  0. 1.0000     0. 
  -1   2   9  22794.00 1301.81  0. 1.0000     0. 
  -1   2  10  45045.00 2533.41  0. 1.0000     0. 
  -1   2  10  51217.00 2848.24  0. 1.0000     0. 
  -1  -2 -10  47792.00 2685.73  0. 1.0000     0. 
   1   2  10  52633.00 2916.19  0. 1.0000     0. 
  -1  -2  10  45583.00 2554.64  0. 1.0000     0. 
  -1  -2  10  52803.00 2975.65  0. 1.0000     0. 
   1  -2  11   3190.82  225.17  0. 1.0000     0. 
  -1   2  11   3318.23  324.18  0. 1.0000     0. 
   1   2  11   2653.73  257.53  0. 1.0000     0. 
  -1  -2  11   2448.47  340.60  0. 1.0000     0. 
   1  -2  12   6180.63  381.94  0. 1.0000     0. 
   1  -2  12   6016.42  382.22  0. 1.0000     0. 
  -1   2  12   5251.98  423.84  0. 1.0000     0. 
  -1   2  12   7474.51  511.33  0. 1.0000     0. 
   1   2  12   5062.28  366.36  0. 1.0000     0. 
  -1  -2  12   6013.58  413.36  0. 1.0000     0. 
  -1  -2  12   4546.99  445.64  0. 1.0000     0. 
  -1   2  13    238.76  248.24  0. 1.0000     0. 
  -1   2  13    140.54  112.85  0. 1.0000     0. 
   1   2  13     37.32   80.32  0. 1.0000     0. 
   1   2  13     77.43  175.79  0. 1.0000     0. 
  -1  -2  13    319.65  310.30  0. 1.0000     0. 
  -1  -2  13     78.11  113.68  0. 1.0000     0. 
   1  -2  14     59.85  106.34  0. 1.0000     0. 
   1  -2  14      6.64   87.46  0. 1.0000     0. 
  -1   2  14    125.20  110.48  0. 1.0000     0. 
  -1   2  14   -114.04  242.98  0. 1.0000     0. 
   1   2  14     42.21  181.40  0. 1.0000     0. 
   1   2  14     99.09   86.41  0. 1.0000     0. 
  -1  -2  14      4.79  112.66  0. 1.0000     0. 
  -1   2  15    676.67  275.37  0. 1.0000     0. 
  -1   2  15    842.30  144.34  0. 1.0000     0. 
   1   2  15    609.00  222.00  0. 1.0000     0. 
   1   2  15    722.82  110.79  0. 1.0000     0. 
  -1  -2  15    788.50  128.03  0. 1.0000     0. 
  -1  -2  15    622.03  247.25  0. 1.0000     0. 
  -1  -3   0     14.64  125.91  0. 1.0000     0. 
   1  -3   0     35.08  102.21  0. 1.0000     0. 
   1  -3   1  74830.00 4091.16  0. 1.0000     0. 
  -1   3   1  71546.00 3921.29  0. 1.0000     0. 
   1   3  -1  70640.00 3878.82  0. 1.0000     0. 
   1   3   1  76500.00 4210.08  0. 1.0000     0. 
  -1  -3   1  74037.00 4077.01  0. 1.0000     0. 
   1  -3  -1  73556.00 4026.04  0. 1.0000     0. 
  -1   3  -1  74858.00 4099.66  0. 1.0000     0. 
   1  -3   2  25337.00 1402.32  0. 1.0000     0. 
   1   3  -2  27845.00 1571.63  0. 1.0000     0. 
  -1  -3  -2  24683.00 1384.48  0. 1.0000     0. 
   1   3   2  26713.00 1503.68  0. 1.0000     0. 
  -1  -3   2  27191.00 1531.43  0. 1.0000     0. 
   1  -3  -2  25331.00 1402.60  0. 1.0000     0. 
  -1   3  -2  27160.00 1511.04  0. 1.0000     0. 
   1  -3   3  28709.00 1586.63  0. 1.0000     0. 
  -1   3   3  29105.00 1622.03  0. 1.0000     0. 
   1   3  -3  29473.00 1659.96  0. 1.0000     0. 
  -1  -3  -3  28935.00 1609.85  0. 1.0000     0. 
   1   3   3  29275.00 1640.99  0. 1.0000     0. 
  -1  -3   3  26942.00 1509.91  0. 1.0000     0. 
  -1   3  -3  28992.00 1602.21  0. 1.0000     0. 
   1  -3   4  10025.00  577.86  0. 1.0000     0. 
  -1   3   4   9937.70  594.56  0. 1.0000     0. 
   1   3  -4   8788.21  548.13  0. 1.0000     0. 
  -1  -3  -4  10269.00  603.34  0. 1.0000     0. 
   1   3   4   9193.08  554.08  0. 1.0000     0. 
  -1  -3   4   8975.08  543.32  0. 1.0000     0. 
   1  -3  -4  10566.00  669.31  0. 1.0000     0. 
  -1   3  -4   8530.57  497.73  0. 1.0000     0. 
   1  -3   5  15597.00  881.09  0. 1.0000     0. 
  -1   3   5  15125.00  874.86  0. 1.0000     0. 
   1   3  -5  14264.00  840.03  0. 1.0000     0. 
  -1  -3  -5  13935.00  795.02  0. 1.0000     0. 
   1   3   5  13819.00  803.51  0. 1.0000     0. 
  -1  -3   5  14391.00  850.23  0. 1.0000     0. 
   1  -3  -5  14035.00  875.42  0. 1.0000     0. 
  -1   3  -5  14471.00  825.31  0. 1.0000     0. 
   1  -3   6    265.80   92.95  0. 1.0000     0. 
  -1   3   6    564.27  147.40  0. 1.0000     0. 
   1   3  -6    624.57  124.97  0. 1.0000     0. 
   1  -3   7  10442.00  604.76  0. 1.0000     0. 
  -1   3   7   9691.38  609.29  0. 1.0000     0. 
  -1  -3  -7   8904.29  618.35  0. 1.0000     0. 
  -1  -3   7  10082.00  635.90  0. 1.0000     0. 
   1  -3  -7   9150.61  679.50  0. 1.0000     0. 
  -1   3  -7  11042.00  632.50  0. 1.0000     0. 
   1  -3   8  14708.00  868.63  0. 1.0000     0. 
   1  -3   8  14128.00  822.48  0. 1.0000     0. 
  -1   3   8  14210.00  848.53  0. 1.0000     0. 
   1   3   8  13041.00  784.26  0. 1.0000     0. 
  -1  -3   8  11852.00  731.31  0. 1.0000     0. 
   1  -3  -8  14663.00  990.66  0. 1.0000     0. 
   1  -3   9  17540.00 1026.61  0. 1.0000     0. 
  -1  -3  -9  16452.00 1025.76  0. 1.0000     0. 
   1   3   9  17565.00 1027.46  0. 1.0000     0. 
  -1  -3   9  15725.00  959.79  0. 1.0000     0. 
   1  -3  -9  18148.00 1199.32  0. 1.0000     0. 
   1  -3  10  12149.00  714.04  0. 1.0000     0. 
   1  -3  10  11704.00  715.74  0. 1.0000     0. 
  -1   3  10  11518.00  740.37  0. 1.0000     0. 
  -1  -3 -10  11033.00  802.09  0. 1.0000     0. 
   1   3  10  10657.00  663.36  0. 1.0000     0. 
  -1  -3  10  10470.00  741.22  0. 1.0000     0. 
  -1  -3  10  10226.00  646.38  0. 1.0000     0. 
   1  -3 -10   9883.91  711.78  0. 1.0000     0. 
   1  -3  11    926.10  160.84  0. 1.0000     0. 
  -1   3  11   1449.89  282.02  0. 1.0000     0. 
  -1  -3 -11   1233.01  344.56  0. 1.0000     0. 
   1   3  11   1322.48  227.01  0. 1.0000     0. 
  -1  -3  11   1958.66  217.30  0. 1.0000     0. 
   1  -3  12   5951.30  374.58  0. 1.0000     0. 
   1  -3  12   5302.94  345.13  0. 1.0000     0. 
  -1   3  12   5764.43  401.76  0. 1.0000     0. 
  -1   3  12   5226.50  442.52  0. 1.0000     0. 
   1   3  12   5181.20  396.38  0. 1.0000     0. 
   1   3  12   5365.23  359.85  0. 1.0000     0. 
  -1  -3  12   4733.86  344.56  0. 1.0000     0. 
  -1  -3  12   4105.32  484.14  0. 1.0000     0. 
   1  -3  13    144.96  135.82  0. 1.0000     0. 
   1  -3  13    201.67   88.28  0. 1.0000     0. 
  -1   3  13    110.84  270.50  0. 1.0000     0. 
  -1   3  13     36.38  105.89  0. 1.0000     0. 
   1   3  13    315.12  201.02  0. 1.0000     0. 
   1   3  13     43.66   88.05  0. 1.0000     0. 
  -1  -3  13    101.10  131.91  0. 1.0000     0. 
  -1  -3  13    160.76  307.76  0. 1.0000     0. 
   1  -3  14   1652.60  151.76  0. 1.0000     0. 
   1  -3  14   1928.65  158.18  0. 1.0000     0. 
  -1   3  14   2075.88  212.99  0. 1.0000     0. 
  -1   3  14   1957.25  307.47  0. 1.0000     0. 
   1   3  14   1922.99  173.98  0. 1.0000     0. 
  -1  -3  14   1830.69  175.59  0. 1.0000     0. 
  -1  -3  14    953.28  393.54  0. 1.0000     0. 
  -1   3  15    -88.17  289.07  0. 1.0000     0. 
   1   3  15     82.62  101.75  0. 1.0000     0. 
   1   3  15    -27.68  235.99  0. 1.0000     0. 
  -1  -3  15     -8.12  190.68  0. 1.0000     0. 
   1   4   0    220.95  157.36  0. 1.0000     0. 
  -1  -4   0     20.36  123.50  0. 1.0000     0. 
   1  -4   0     86.64  104.61  0. 1.0000     0. 
  -1   4   0     85.99  108.66  0. 1.0000     0. 
   1  -4   1   1438.28  145.24  0. 1.0000     0. 
  -1   4   1   1530.29  170.75  0. 1.0000     0. 
   1   4  -1   1363.82  199.94  0. 1.0000     0. 
  -1  -4  -1   1249.15  158.13  0. 1.0000     0. 
   1   4   1   1352.49  188.99  0. 1.0000     0. 
  -1  -4   1   1384.48  197.28  0. 1.0000     0. 
   1  -4  -1   1524.63  165.57  0. 1.0000     0. 
  -1   4  -1   1285.39  155.69  0. 1.0000     0. 
   1  -4   2 132333.00 7222.53  0. 1.0000     0. 
  -1   4   2 134229.98 7338.61  0. 1.0000     0. 
   1   4  -2 137571.00 7525.47  0. 1.0000     0. 
  -1  -4  -2 161891.00 8858.99  0. 1.0000     0. 
   1   4   2 142837.00 7822.76  0. 1.0000     0. 
  -1  -4   2 139383.00 7638.72  0. 1.0000     0. 
   1  -4  -2 135985.00 7423.55  0. 1.0000     0. 
  -1   4  -2 143403.00 7839.74  0. 1.0000     0. 
   1  -4   3 158607.00 8652.31  0. 1.0000     0. 
  -1   4   3 155718.98 8510.75  0. 1.0000     0. 
   1   4  -3 163448.00 8949.59  0. 1.0000     0. 
  -1  -4  -3 152576.00 8335.21  0. 1.0000     0. 
   1   4   3 160475.02 8782.55  0. 1.0000     0. 
  -1  -4   3 161522.98 8844.84  0. 1.0000     0. 
   1  -4  -3 171546.00 9354.46  0. 1.0000     0. 
  -1   4  -3 163703.00 8949.59  0. 1.0000     0. 
  -1   4   4  14485.00  852.21  0. 1.0000     0. 
  -1  -4  -4  14323.00  833.80  0. 1.0000     0. 
   1   4   4  13358.00  797.28  0. 1.0000     0. 
  -1  -4   4  12421.00  753.96  0. 1.0000     0. 
  -1   4  -4  10728.00  627.97  0. 1.0000     0. 
   1  -4   5  98726.00 5402.03  0. 1.0000     0. 
   1   4  -5 103312.00 5690.82  0. 1.0000     0. 
  -1  -4  -5  89411.00 4903.73  0. 1.0000     0. 
   1   4   5  95272.00 5240.65  0. 1.0000     0. 
  -1  -4   5 105521.00 5826.72  0. 1.0000     0. 
   1  -4  -5  86835.00 4832.95  0. 1.0000     0. 
   1  -4   6 125678.99 6874.29  0. 1.0000     0. 
  -1   4   6 120554.99 6616.64  0. 1.0000     0. 
   1   4  -6 112571.00 6186.29  0. 1.0000     0. 
  -1  -4  -6 112173.99 6140.99  0. 1.0000     0. 
  -1  -4   6 114212.99 6262.73  0. 1.0000     0. 
   1  -4  -6 118260.99 6531.70  0. 1.0000     0. 
  -1   4  -6 112854.00 6183.46  0. 1.0000     0. 
   1  -4   7   1852.77  169.31  0. 1.0000     0. 
  -1   4   7   2409.96  258.55  0. 1.0000     0. 
  -1  -4  -7   2681.20  393.26  0. 1.0000     0. 
   1   4   7   2058.89  262.80  0. 1.0000     0. 
  -1  -4   7   1645.53  194.76  0. 1.0000     0. 
   1  -4  -7   2873.72  368.63  0. 1.0000     0. 
   1  -4   8   1006.23  131.37  0. 1.0000     0. 
  -1   4   8    919.03  245.21  0. 1.0000     0. 
  -1  -4  -8    500.28  294.45  0. 1.0000     0. 
   1   4   8   1126.27  212.09  0. 1.0000     0. 
   1  -4  -8    533.97  325.03  0. 1.0000     0. 
   1  -4   9   2834.09  274.55  0. 1.0000     0. 
   1   4  -9   3023.78  248.36  0. 1.0000     0. 
  -1  -4  -9   2981.31  440.54  0. 1.0000     0. 
   1   4   9   3496.60  319.36  0. 1.0000     0. 
  -1  -4   9   3298.41  266.51  0. 1.0000     0. 
   1  -4  -9   3284.25  486.98  0. 1.0000     0. 
   1  -4  10   2005.38  179.33  0. 1.0000     0. 
   1  -4  10   1513.87  209.60  0. 1.0000     0. 
  -1   4  10   1387.88  270.47  0. 1.0000     0. 
  -1  -4 -10   1438.28  353.34  0. 1.0000     0. 
   1   4  10   1699.89  265.57  0. 1.0000     0. 
  -1  -4  10    948.47  224.72  0. 1.0000     0. 
  -1  -4  10   1773.50  194.48  0. 1.0000     0. 
   1  -4  11  12426.00  719.14  0. 1.0000     0. 
   1  -4  11  12087.00  738.11  0. 1.0000     0. 
  -1   4  11  11922.00  778.03  0. 1.0000     0. 
  -1  -4 -11  10294.00  840.60  0. 1.0000     0. 
   1   4  11  11300.00  725.93  0. 1.0000     0. 
  -1  -4  11  11101.00  667.33  0. 1.0000     0. 
  -1  -4  11  11217.00  821.35  0. 1.0000     0. 
   1  -4 -11  10408.00  806.06  0. 1.0000     0. 
   1  -4  12   5201.01  343.71  0. 1.0000     0. 
   1  -4  12   6033.40  381.09  0. 1.0000     0. 
  -1   4  12   5458.66  453.85  0. 1.0000     0. 
  -1  -4 -12   6353.33  713.76  0. 1.0000     0. 
   1   4  12   5778.59  454.13  0. 1.0000     0. 
  -1  -4  12   4750.84  328.99  0. 1.0000     0. 
  -1  -4  12   6121.17  582.96  0. 1.0000     0. 
   1  -4  13   3054.92  225.14  0. 1.0000     0. 
   1  -4  13   2984.14  213.02  0. 1.0000     0. 
  -1   4  13   2574.74  356.17  0. 1.0000     0. 
  -1  -4 -13   1663.64  392.70  0. 1.0000     0. 
   1   4  13   2485.56  288.79  0. 1.0000     0. 
  -1  -4  13   1608.44  426.67  0. 1.0000     0. 
  -1   4  14   6223.10  491.22  0. 1.0000     0. 
  -1   4  14   4827.29  340.32  0. 1.0000     0. 
   1   4  14   5305.77  355.04  0. 1.0000     0. 
  -1  -4  14   4736.69  550.40  0. 1.0000     0. 
  -1  -4  14   6143.82  411.66  0. 1.0000     0. 
   1   5   0    -12.55  150.93  0. 1.0000     0. 
  -1  -5   0     -4.70  148.22  0. 1.0000     0. 
  -1   5   0     64.35  129.36  0. 1.0000     0. 
   1  -5   1   1530.86  167.47  0. 1.0000     0. 
  -1   5   1   1306.06  176.81  0. 1.0000     0. 
   1   5  -1   1591.73  226.98  0. 1.0000     0. 
  -1  -5  -1   1960.64  207.16  0. 1.0000     0. 
  -1  -5   1   1504.25  195.73  0. 1.0000     0. 
   1  -5  -1   1554.64  168.97  0. 1.0000     0. 
  -1   5  -1   1189.13  183.32  0. 1.0000     0. 
   1  -5   2   6894.10  427.80  0. 1.0000     0. 
  -1   5   2   7032.84  460.93  0. 1.0000     0. 
   1   5  -2   7907.69  507.08  0. 1.0000     0. 
   1   5   2   7369.75  506.79  0. 1.0000     0. 
  -1  -5   2   7797.27  518.97  0. 1.0000     0. 
   1  -5  -2   6449.60  420.44  0. 1.0000     0. 
  -1   5  -2   7533.97  481.03  0. 1.0000     0. 
   1   5  -3  53341.00 2975.65  0. 1.0000     0. 
   1   5   3  46433.00 2607.59  0. 1.0000     0. 
  -1  -5   3  53454.00 2986.97  0. 1.0000     0. 
   1  -5  -3  48839.00 2708.66  0. 1.0000     0. 
  -1   5  -3  55153.00 3052.09  0. 1.0000     0. 
   1  -5   4    197.56  108.21  0. 1.0000     0. 
  -1   5   4    213.22  160.87  0. 1.0000     0. 
   1   5  -4    104.42  140.03  0. 1.0000     0. 
  -1  -5  -4    218.29  153.96  0. 1.0000     0. 
   1   5   4    171.83  176.67  0. 1.0000     0. 
  -1  -5   4    304.08  166.11  0. 1.0000     0. 
  -1   5  -4    544.73  111.04  0. 1.0000     0. 
   1  -5   5  45838.00 2534.26  0. 1.0000     0. 
  -1   5   5  43007.00 2414.78  0. 1.0000     0. 
   1   5  -5  48952.00 2740.65  0. 1.0000     0. 
  -1  -5  -5  44337.00 2474.23  0. 1.0000     0. 
   1   5   5  42440.00 2391.84  0. 1.0000     0. 
   1  -5  -5  45385.00 2629.67  0. 1.0000     0. 
  -1   5  -5  47112.00 2616.93  0. 1.0000     0. 
   1  -5   6  18480.00 1052.09  0. 1.0000     0. 
  -1   5   6  17019.00 1020.10  0. 1.0000     0. 
  -1  -5  -6  16837.00  986.41  0. 1.0000     0. 
   1   5   6  16591.00 1007.08  0. 1.0000     0. 
  -1  -5   6  17908.00 1057.76  0. 1.0000     0. 
   1  -5  -6  17769.00 1140.15  0. 1.0000     0. 
  -1   5  -6  18318.00 1065.40  0. 1.0000     0. 
   1  -5   7   2102.77  192.04  0. 1.0000     0. 
  -1   5   7   1702.72  255.29  0. 1.0000     0. 
  -1  -5  -7   1545.30  280.75  0. 1.0000     0. 
   1   5   7   1790.77  279.42  0. 1.0000     0. 
  -1  -5   7   1923.55  234.43  0. 1.0000     0. 
   1  -5  -7   1613.25  359.29  0. 1.0000     0. 
  -1   5  -7   2588.05  204.76  0. 1.0000     0. 
   1  -5   8  15643.00  897.51  0. 1.0000     0. 
  -1   5   8  13862.00  870.04  0. 1.0000     0. 
   1   5  -8  15643.00  932.90  0. 1.0000     0. 
  -1  -5  -8  14975.00 1015.00  0. 1.0000     0. 
   1   5   8  15328.00  952.72  0. 1.0000     0. 
  -1  -5   8  14773.00  896.09  0. 1.0000     0. 
   1  -5  -8  16532.00 1118.06  0. 1.0000     0. 
  -1   5  -8  15691.00  900.06  0. 1.0000     0. 
   1  -5   9    241.53  119.76  0. 1.0000     0. 
  -1   5   9     75.31  255.01  0. 1.0000     0. 
   1   5  -9    161.35  111.27  0. 1.0000     0. 
  -1  -5  -9    111.47  307.19  0. 1.0000     0. 
   1   5   9     90.60  255.83  0. 1.0000     0. 
  -1  -5   9    174.89  163.22  0. 1.0000     0. 
   1  -5  -9    239.30  398.64  0. 1.0000     0. 
  -1   5  -9    199.77   75.91  0. 1.0000     0. 
   1  -5  10    613.53  214.92  0. 1.0000     0. 
   1  -5  10    976.22  160.96  0. 1.0000     0. 
  -1   5  10    614.67  279.84  0. 1.0000     0. 
   1   5 -10    738.96  124.60  0. 1.0000     0. 
  -1  -5 -10    471.97  421.29  0. 1.0000     0. 
   1   5  10    794.73  258.66  0. 1.0000     0. 
  -1  -5  10    563.99  196.77  0. 1.0000     0. 
   1  -5  11   1394.96  248.87  0. 1.0000     0. 
   1  -5  11   1489.52  157.16  0. 1.0000     0. 
  -1   5  11   1515.57  294.73  0. 1.0000     0. 
  -1  -5 -11   1086.64  475.93  0. 1.0000     0. 
   1   5  11   1005.94  272.48  0. 1.0000     0. 
  -1  -5  11   1321.35  196.52  0. 1.0000     0. 
  -1  -5  11    818.52  272.37  0. 1.0000     0. 
   1  -5 -11    851.92  562.29  0. 1.0000     0. 
   1  -5  12    679.78  115.60  0. 1.0000     0. 
   1  -5  12    768.40  208.61  0. 1.0000     0. 
  -1   5  12    742.07  297.28  0. 1.0000     0. 
  -1  -5 -12    762.17  573.90  0. 1.0000     0. 
   1   5  12    530.29  271.86  0. 1.0000     0. 
  -1  -5  12    965.74  405.15  0. 1.0000     0. 
  -1  -5  12    421.29  145.64  0. 1.0000     0. 
   1  -5 -12    693.94  462.63  0. 1.0000     0. 
   1  -5  13    528.60  128.48  0. 1.0000     0. 
   1  -5  13    516.42  100.65  0. 1.0000     0. 
  -1   5  13    273.95  287.94  0. 1.0000     0. 
  -1  -5 -13     72.88  554.93  0. 1.0000     0. 
   1   5  13    573.90  239.44  0. 1.0000     0. 
  -1  -5  13    605.32  143.49  0. 1.0000     0. 
  -1  -5  13    197.25  396.94  0. 1.0000     0. 
  -1   5  14   2328.14  391.56  0. 1.0000     0. 
  -1   5  14   1991.50  219.93  0. 1.0000     0. 
  -1  -5 -14   1789.35  602.49  0. 1.0000     0. 
   1   5  14   1719.14  167.50  0. 1.0000     0. 
   1   5  14   1546.71  326.44  0. 1.0000     0. 
  -1  -5  14   2064.83  190.20  0. 1.0000     0. 
  -1  -5  14   1898.92  511.61  0. 1.0000     0. 
   1   6   0     21.82  185.79  0. 1.0000     0. 
  -1  -6   0    143.32  165.43  0. 1.0000     0. 
  -1   6   0    -15.96  161.44  0. 1.0000     0. 
   1  -6   1 109683.00 6016.42  0. 1.0000     0. 
  -1   6   1 112854.00 6208.94  0. 1.0000     0. 
   1   6  -1 113562.01 6276.89  0. 1.0000     0. 
  -1  -6  -1 109626.00 6030.57  0. 1.0000     0. 
   1   6   1 113448.01 6268.40  0. 1.0000     0. 
  -1  -6   1 110899.99 6104.18  0. 1.0000     0. 
   1  -6  -1 109370.99 6002.26  0. 1.0000     0. 
  -1   6  -1 117186.00 6446.77  0. 1.0000     0. 
   1  -6   2  70724.99 3895.81  0. 1.0000     0. 
  -1   6   2  66081.00 3669.31  0. 1.0000     0. 
   1   6  -2  69252.00 3839.18  0. 1.0000     0. 
  -1  -6  -2  68629.99 3799.54  0. 1.0000     0. 
   1   6   2  70385.01 3929.78  0. 1.0000     0. 
  -1  -6   2  67667.00 3762.74  0. 1.0000     0. 
   1  -6  -2  70186.99 3875.99  0. 1.0000     0. 
  -1   6  -2  66166.01 3672.14  0. 1.0000     0. 
   1  -6   3   9425.25  578.99  0. 1.0000     0. 
  -1   6   3   9479.04  628.82  0. 1.0000     0. 
   1   6  -3   7950.16  522.37  0. 1.0000     0. 
  -1  -6  -3  10309.00  686.58  0. 1.0000     0. 
   1   6   3   9014.71  637.60  0. 1.0000     0. 
  -1  -6   3  10416.00  685.73  0. 1.0000     0. 
   1  -6  -3  10283.00  650.34  0. 1.0000     0. 
  -1   6  -3   8638.16  552.66  0. 1.0000     0. 
   1  -6   4   2472.82  224.66  0. 1.0000     0. 
  -1   6   4   1883.63  283.41  0. 1.0000     0. 
   1   6  -4   3091.73  310.30  0. 1.0000     0. 
  -1  -6  -4   2300.11  297.28  0. 1.0000     0. 
   1   6   4   2433.46  331.26  0. 1.0000     0. 
  -1  -6   4   2510.76  281.51  0. 1.0000     0. 
   1  -6  -4   2446.77  265.23  0. 1.0000     0. 
  -1   6  -4   2744.90  245.89  0. 1.0000     0. 
   1  -6   5   1184.03  171.21  0. 1.0000     0. 
  -1   6   5    960.08  238.08  0. 1.0000     0. 
   1   6  -5   1259.91  223.41  0. 1.0000     0. 
  -1  -6  -5    984.99  257.22  0. 1.0000     0. 
   1   6   5   1217.44  275.40  0. 1.0000     0. 
  -1  -6   5   1090.88  215.83  0. 1.0000     0. 
  -1   6  -5   1262.74  178.60  0. 1.0000     0. 
   1  -6   6  13078.00  762.17  0. 1.0000     0. 
  -1   6   6  11396.00  739.52  0. 1.0000     0. 
   1   6  -6  13437.00  849.66  0. 1.0000     0. 
  -1  -6  -6  13137.00  812.00  0. 1.0000     0. 
   1   6   6  12976.00  844.00  0. 1.0000     0. 
  -1  -6   6  13194.00  821.63  0. 1.0000     0. 
   1  -6  -6  12322.00  900.62  0. 1.0000     0. 
  -1   6  -6  12681.00  753.40  0. 1.0000     0. 
   1  -6   7  39836.00 2212.34  0. 1.0000     0. 
  -1   6   7  37769.00 2164.49  0. 1.0000     0. 
   1   6  -7  37486.00 2116.08  0. 1.0000     0. 
  -1  -6  -7  40657.00 2275.20  0. 1.0000     0. 
   1   6   7  39156.00 2246.03  0. 1.0000     0. 
  -1  -6   7  39156.00 2219.99  0. 1.0000     0. 
   1  -6  -7  40657.00 2401.19  0. 1.0000     0. 
  -1   6  -7  37967.00 2129.95  0. 1.0000     0. 
  -1   6   8   4660.24  435.73  0. 1.0000     0. 
  -1  -6  -8   5458.66  695.36  0. 1.0000     0. 
  -1  -6   8   4037.37  345.41  0. 1.0000     0. 
   1  -6  -8   5586.06  681.20  0. 1.0000     0. 
   1  -6   9   8674.96  526.90  0. 1.0000     0. 
  -1   6   9   7718.00  599.94  0. 1.0000     0. 
  -1  -6  -9   6528.87  668.74  0. 1.0000     0. 
   1   6   9   8236.12  618.06  0. 1.0000     0. 
  -1   6  -9   9779.15  577.58  0. 1.0000     0. 
   1  -6  10  18488.00 1046.43  0. 1.0000     0. 
  -1   6  10  16382.00 1046.71  0. 1.0000     0. 
   1   6 -10  14867.00  868.63  0. 1.0000     0. 
  -1  -6 -10  17956.00 1245.19  0. 1.0000     0. 
   1   6  10  17930.00 1118.35  0. 1.0000     0. 
  -1  -6  10  17038.00 1024.35  0. 1.0000     0. 
   1  -6 -10  17047.00 1418.46  0. 1.0000     0. 
  -1   6 -10  16526.00  926.10  0. 1.0000     0. 
   1  -6  11   2170.16  357.30  0. 1.0000     0. 
  -1   6  11   1239.24  336.35  0. 1.0000     0. 
  -1  -6 -11   1686.86  523.22  0. 1.0000     0. 
   1   6  11   1287.65  327.86  0. 1.0000     0. 
  -1  -6  11   1243.49  203.45  0. 1.0000     0. 
   1  -6 -11   1557.76  741.79  0. 1.0000     0. 
   1  -6  12    497.17  256.82  0. 1.0000     0. 
   1  -6  12    677.80  124.26  0. 1.0000     0. 
  -1   6  12    633.92  328.43  0. 1.0000     0. 
  -1  -6 -12    509.63  656.00  0. 1.0000     0. 
   1   6  12    736.41  325.31  0. 1.0000     0. 
  -1  -6  12    977.35  413.08  0. 1.0000     0. 
   1  -6 -12    612.40  765.57  0. 1.0000     0. 
  -1   6  13   -155.83  330.69  0. 1.0000     0. 
  -1  -6 -13    115.97  814.55  0. 1.0000     0. 
   1   6  13     29.36  290.20  0. 1.0000     0. 
  -1  -6  13    -66.45  487.54  0. 1.0000     0. 
  -1  -6  13     56.51  133.07  0. 1.0000     0. 
   1  -6 -13   -428.09  742.64  0. 1.0000     0. 
   1   7   0    -55.21  237.40  0. 1.0000     0. 
  -1  -7   0      7.40  193.18  0. 1.0000     0. 
   1  -7   0     24.09  202.58  0. 1.0000     0. 
  -1   7   0     21.34  211.72  0. 1.0000     0. 
   1  -7   1  30068.00 1708.38  0. 1.0000     0. 
  -1   7   1  32531.00 1875.42  0. 1.0000     0. 
   1   7  -1  33239.00 1947.90  0. 1.0000     0. 
  -1  -7  -1  29530.00 1701.02  0. 1.0000     0. 
   1   7   1  33692.00 1965.46  0. 1.0000     0. 
  -1  -7   1  30861.00 1768.40  0. 1.0000     0. 
   1  -7  -1  29841.00 1700.73  0. 1.0000     0. 
  -1   7  -1  32078.00 1849.09  0. 1.0000     0. 
  -1   7   2  22695.00 1353.62  0. 1.0000     0. 
   1   7  -2  23041.00 1343.71  0. 1.0000     0. 
  -1  -7  -2  21356.00 1269.53  0. 1.0000     0. 
  -1  -7   2  21897.00 1296.43  0. 1.0000     0. 
   1  -7  -2  21062.00 1228.20  0. 1.0000     0. 
  -1   7  -2  23112.00 1375.14  0. 1.0000     0. 
   1  -7   3   1906.00  232.81  0. 1.0000     0. 
  -1   7   3   2038.50  311.44  0. 1.0000     0. 
   1   7  -3   1665.06  230.27  0. 1.0000     0. 
   1   7   3   1744.90  328.43  0. 1.0000     0. 
  -1  -7   3   1880.24  272.51  0. 1.0000     0. 
   1  -7  -3   1908.83  271.89  0. 1.0000     0. 
   1  -7   4   1578.14  209.74  0. 1.0000     0. 
   1   7  -4   1782.56  252.43  0. 1.0000     0. 
  -1  -7  -4   1588.05  288.51  0. 1.0000     0. 
   1   7   4   1846.26  353.62  0. 1.0000     0. 
  -1  -7   4   1646.66  268.04  0. 1.0000     0. 
   1  -7  -4   1739.52  265.26  0. 1.0000     0. 
   1  -7   5    109.82  148.87  0. 1.0000     0. 
  -1   7   5    209.63  259.06  0. 1.0000     0. 
   1   7  -5    215.46  194.17  0. 1.0000     0. 
  -1  -7  -5    233.78  271.21  0. 1.0000     0. 
   1   7   5    236.81  283.04  0. 1.0000     0. 
  -1  -7   5    128.09  208.15  0. 1.0000     0. 
  -1   7   6   1387.31  335.22  0. 1.0000     0. 
   1   7  -6   2282.56  261.07  0. 1.0000     0. 
  -1  -7  -6   1368.06  286.24  0. 1.0000     0. 
   1   7   6   1817.38  350.51  0. 1.0000     0. 
  -1  -7   6   1801.24  258.89  0. 1.0000     0. 
   1  -7  -6   1489.24  484.43  0. 1.0000     0. 
  -1   7   7   5444.50  480.18  0. 1.0000     0. 
   1   7  -7   6446.77  473.95  0. 1.0000     0. 
  -1  -7  -7   5702.15  479.61  0. 1.0000     0. 
   1   7   7   6514.72  573.90  0. 1.0000     0. 
  -1  -7   7   6492.07  481.31  0. 1.0000     0. 
   1  -7  -7   5654.01  664.21  0. 1.0000     0. 
  -1   7  -7   6305.20  438.84  0. 1.0000     0. 
  -1   7   8    640.15  311.72  0. 1.0000     0. 
   1   7  -8    286.24  147.34  0. 1.0000     0. 
  -1  -7  -8    733.01  560.87  0. 1.0000     0. 
  -1  -7   8    589.75  199.40  0. 1.0000     0. 
   1  -7  -8    872.59  460.64  0. 1.0000     0. 
   1  -7   9   6016.42  392.98  0. 1.0000     0. 
  -1   7   9   6619.47  577.29  0. 1.0000     0. 
  -1  -7  -9   5402.03  747.73  0. 1.0000     0. 
   1   7   9   7460.35  634.77  0. 1.0000     0. 
  -1  -7   9   7100.79  494.34  0. 1.0000     0. 
   1  -7  -9   6463.75  892.69  0. 1.0000     0. 
  -1   7  -9   8018.11  484.99  0. 1.0000     0. 
   1  -7  10   5382.21  351.64  0. 1.0000     0. 
  -1   7  10   5789.92  570.78  0. 1.0000     0. 
   1   7 -10   5872.02  391.85  0. 1.0000     0. 
  -1  -7 -10   6492.07  753.68  0. 1.0000     0. 
   1   7  10   6738.39  598.53  0. 1.0000     0. 
  -1  -7  10   6271.23  446.49  0. 1.0000     0. 
   1  -7 -10   5758.77  876.27  0. 1.0000     0. 
  -1   7 -10   5495.46  331.82  0. 1.0000     0. 
   1  -7  11     71.86  114.81  0. 1.0000     0. 
  -1   7  11     52.97  337.49  0. 1.0000     0. 
  -1  -7 -11     36.98  661.95  0. 1.0000     0. 
   1   7  11    284.54  331.26  0. 1.0000     0. 
  -1  -7  11    148.87  159.12  0. 1.0000     0. 
   1  -7 -11   -145.05  803.51  0. 1.0000     0. 
   1  -7  12   1109.00  138.02  0. 1.0000     0. 
   1  -7  12   2013.30  413.93  0. 1.0000     0. 
  -1   7  12   1922.99  422.99  0. 1.0000     0. 
   1   7  12   1961.21  395.81  0. 1.0000     0. 
  -1  -7  12   1924.40  424.40  0. 1.0000     0. 
  -1  -7  12   1969.42  218.38  0. 1.0000     0. 
  -1  -7  13    315.40  403.45  0. 1.0000     0. 
   1   8   0    175.31  242.87  0. 1.0000     0. 
  -1  -8   0    113.22  219.54  0. 1.0000     0. 
   1  -8   0     16.92  218.86  0. 1.0000     0. 
  -1   8   0     44.45  270.41  0. 1.0000     0. 
  -1   8   1    310.87  273.84  0. 1.0000     0. 
   1   8  -1    646.66  329.27  0. 1.0000     0. 
  -1  -8  -1    574.18  261.49  0. 1.0000     0. 
   1   8   1    881.65  348.81  0. 1.0000     0. 
  -1  -8   1    549.26  235.50  0. 1.0000     0. 
   1  -8  -1    696.49  257.08  0. 1.0000     0. 
  -1   8  -1    501.13  242.92  0. 1.0000     0. 
   1  -8   2  21328.00 1247.73  0. 1.0000     0. 
  -1   8   2  21897.00 1339.47  0. 1.0000     0. 
   1   8  -2  20422.00 1216.87  0. 1.0000     0. 
  -1  -8  -2  21435.00 1301.53  0. 1.0000     0. 
   1   8   2  21138.00 1329.84  0. 1.0000     0. 
  -1  -8   2  20317.00 1220.27  0. 1.0000     0. 
   1  -8  -2  21096.00 1250.85  0. 1.0000     0. 
   1  -8   3  29983.00 1707.53  0. 1.0000     0. 
  -1   8   3  30351.00 1800.39  0. 1.0000     0. 
   1   8  -3  28001.00 1619.48  0. 1.0000     0. 
  -1  -8  -3  30379.00 1781.14  0. 1.0000     0. 
   1   8   3  28313.00 1716.31  0. 1.0000     0. 
   1  -8  -3  28992.00 1685.16  0. 1.0000     0. 
  -1   8  -3  30323.00 1770.10  0. 1.0000     0. 
   1  -8   4   3776.89  318.52  0. 1.0000     0. 
  -1   8   4   3737.26  443.09  0. 1.0000     0. 
  -1  -8  -4   3238.95  436.30  0. 1.0000     0. 
   1   8   4   3437.14  471.69  0. 1.0000     0. 
  -1  -8   4   3833.52  384.48  0. 1.0000     0. 
   1  -8  -4   3918.46  396.66  0. 1.0000     0. 
  -1   8  -4   3221.97  292.18  0. 1.0000     0. 
   1  -8   5  13955.00  835.50  0. 1.0000     0. 
  -1   8   5  13584.00  932.61  0. 1.0000     0. 
   1   8  -5  14740.00  931.77  0. 1.0000     0. 
  -1  -8  -5  13836.00  916.19  0. 1.0000     0. 
   1   8   5  14136.00  966.59  0. 1.0000     0. 
  -1  -8   5  14907.00  934.03  0. 1.0000     0. 
   1  -8  -5  12673.00 1031.43  0. 1.0000     0. 
  -1   8  -5  14363.00  864.66  0. 1.0000     0. 
   1  -8   6  20810.00 1202.43  0. 1.0000     0. 
  -1   8   6  20617.00 1302.66  0. 1.0000     0. 
   1   8  -6  19788.00 1198.75  0. 1.0000     0. 
  -1  -8  -6  21082.00 1286.24  0. 1.0000     0. 
   1   8   6  20835.00 1326.16  0. 1.0000     0. 
  -1  -8   6  20965.00 1246.88  0. 1.0000     0. 
   1  -8  -6  21087.00 1595.13  0. 1.0000     0. 
  -1   8  -6  20841.00 1220.27  0. 1.0000     0. 
   1  -8   7   1534.82  207.67  0. 1.0000     0. 
  -1   8   7   1847.39  378.82  0. 1.0000     0. 
   1   8  -7   1295.02  218.12  0. 1.0000     0. 
  -1  -8  -7   2058.32  355.89  0. 1.0000     0. 
   1   8   7   1812.00  396.94  0. 1.0000     0. 
  -1  -8   7   1867.78  283.98  0. 1.0000     0. 
   1  -8  -7   2012.74  608.72  0. 1.0000     0. 
   1  -8   8     48.98  138.85  0. 1.0000     0. 
  -1   8   8    -97.85  332.96  0. 1.0000     0. 
   1   8  -8     83.10  140.43  0. 1.0000     0. 
  -1  -8  -8   -129.67  617.78  0. 1.0000     0. 
  -1  -8   8    130.58  205.69  0. 1.0000     0. 
   1  -8  -8    146.21  524.35  0. 1.0000     0. 
  -1   8  -8     16.59  116.59  0. 1.0000     0. 
   1  -8   9    117.78  133.35  0. 1.0000     0. 
  -1   8   9   -210.87  389.58  0. 1.0000     0. 
   1   8  -9     37.12  118.18  0. 1.0000     0. 
   1   8   9    131.94  394.39  0. 1.0000     0. 
  -1  -8   9    119.93  186.98  0. 1.0000     0. 
   1  -8  -9    109.09  773.78  0. 1.0000     0. 
  -1   8  -9     56.34   85.73  0. 1.0000     0. 
   1  -8  10    448.47  136.84  0. 1.0000     0. 
  -1   8  10    407.70  392.70  0. 1.0000     0. 
   1   8 -10    598.24  118.38  0. 1.0000     0. 
  -1  -8 -10    404.87  590.60  0. 1.0000     0. 
   1   8  10    913.08  424.97  0. 1.0000     0. 
  -1  -8  10    728.20  204.27  0. 1.0000     0. 
   1  -8 -10    666.48  771.23  0. 1.0000     0. 
   1  -8  11   2207.25  213.28  0. 1.0000     0. 
  -1  -8 -11   2547.00 1052.94  0. 1.0000     0. 
   1   8  11   2700.45  479.61  0. 1.0000     0. 
  -1  -8  11   3037.94  279.67  0. 1.0000     0. 
  -1   8 -11   2964.32  190.71  0. 1.0000     0. 
   1   8 -12   2044.73  164.95  0. 1.0000     0. 
  -1  -8  12   1845.69  223.36  0. 1.0000     0. 
   1   9   0     84.57  297.57  0. 1.0000     0. 
  -1  -9   0   -117.50  301.81  0. 1.0000     0. 
  -1   9   0     76.42  269.34  0. 1.0000     0. 
   1  -9   1    314.55  277.97  0. 1.0000     0. 
  -1   9   1    201.13  290.49  0. 1.0000     0. 
   1   9  -1    526.61  329.84  0. 1.0000     0. 
  -1  -9  -1    307.47  314.55  0. 1.0000     0. 
   1   9   1    500.85  309.74  0. 1.0000     0. 
  -1  -9   1    151.64  280.97  0. 1.0000     0. 
   1  -9  -1    412.23  308.04  0. 1.0000     0. 
   1  -9   2   5288.78  434.03  0. 1.0000     0. 
  -1   9   2   5962.62  551.53  0. 1.0000     0. 
   1   9  -2   5942.80  490.09  0. 1.0000     0. 
  -1  -9  -2   5546.43  527.18  0. 1.0000     0. 
   1   9   2   5755.94  619.48  0. 1.0000     0. 
   1  -9  -2   4685.73  447.05  0. 1.0000     0. 
  -1   9  -2   5614.38  442.52  0. 1.0000     0. 
   1  -9   3  11161.00  717.16  0. 1.0000     0. 
  -1   9   3  11200.00  830.41  0. 1.0000     0. 
  -1  -9  -3  10592.00  774.91  0. 1.0000     0. 
  -1  -9   3  10651.00  724.52  0. 1.0000     0. 
   1  -9  -3  10504.00  731.88  0. 1.0000     0. 
  -1   9  -3  11529.00  791.05  0. 1.0000     0. 
   1  -9   4     81.14  221.69  0. 1.0000     0. 
  -1   9   4    144.48  341.17  0. 1.0000     0. 
   1   9  -4     17.51  189.30  0. 1.0000     0. 
   1   9   4    -21.55  343.43  0. 1.0000     0. 
  -1  -9   4    137.94  246.15  0. 1.0000     0. 
   1  -9  -4     47.79  284.54  0. 1.0000     0. 
  -1   9  -4     -7.98  160.90  0. 1.0000     0. 
   1  -9   5   9895.23  644.96  0. 1.0000     0. 
   1   9  -5  11104.00  748.87  0. 1.0000     0. 
  -1  -9  -5  10042.00  768.69  0. 1.0000     0. 
   1   9   5  10153.00  833.24  0. 1.0000     0. 
  -1  -9   5  10538.00  713.48  0. 1.0000     0. 
   1  -9  -5   8657.98  925.82  0. 1.0000     0. 
  -1   9  -5  10753.00  680.63  0. 1.0000     0. 
   1  -9   6   6605.32  469.70  0. 1.0000     0. 
  -1   9   6   6081.53  616.08  0. 1.0000     0. 
   1   9  -6   6851.64  504.53  0. 1.0000     0. 
  -1  -9  -6   6081.53  581.82  0. 1.0000     0. 
   1   9   6   5965.45  614.38  0. 1.0000     0. 
  -1  -9   6   6673.27  501.13  0. 1.0000     0. 
   1  -9   7   -110.53  170.61  0. 1.0000     0. 
  -1   9   7    -31.79  399.49  0. 1.0000     0. 
   1   9  -7     59.17  177.89  0. 1.0000     0. 
  -1  -9  -7     89.30  313.99  0. 1.0000     0. 
   1   9   7      8.34  381.65  0. 1.0000     0. 
  -1  -9   7      7.24  205.15  0. 1.0000     0. 
   1  -9  -7    191.87  678.65  0. 1.0000     0. 
  -1   9  -7     19.81  130.86  0. 1.0000     0. 
   1  -9   8   1856.74  232.13  0. 1.0000     0. 
  -1   9   8   1987.82  482.45  0. 1.0000     0. 
   1   9  -8   2192.81  238.53  0. 1.0000     0. 
  -1  -9  -8   1795.58  827.29  0. 1.0000     0. 
  -1  -9   8   2346.54  289.07  0. 1.0000     0. 
   1  -9  -8   2095.98  829.56  0. 1.0000     0. 
  -1   9  -8   2390.43  218.09  0. 1.0000     0. 
   1  -9   9    199.60  169.00  0. 1.0000     0. 
  -1   9   9    436.01  505.10  0. 1.0000     0. 
   1   9  -9    416.19  125.91  0. 1.0000     0. 
   1   9   9    312.57  402.89  0. 1.0000     0. 
  -1  -9   9    359.00  208.80  0. 1.0000     0. 
  -1   9  -9    458.38  102.12  0. 1.0000     0. 
   1  -9  10     56.94  152.04  0. 1.0000     0. 
   1   9 -10     50.99   96.12  0. 1.0000     0. 
  -1  -9  10    127.80  185.45  0. 1.0000     0. 
  -1   9 -10     43.04   62.71  0. 1.0000     0. 
   1   9 -11    269.65  109.37  0. 1.0000     0. 
  -1  -9  11    349.66  194.68  0. 1.0000     0. 
  -1   9 -11    186.92   61.81  0. 1.0000     0. 
   1  10   0    -92.36  349.66  0. 1.0000     0. 
  -1 -10   0     28.68  352.21  0. 1.0000     0. 
   1 -10   0     20.77  314.55  0. 1.0000     0. 
   1 -10   1   8912.79  663.93  0. 1.0000     0. 
  -1  10   1   8366.36  692.81  0. 1.0000     0. 
   1  10  -1   8892.97  728.77  0. 1.0000     0. 
  -1 -10  -1   8980.74  711.49  0. 1.0000     0. 
   1  10   1   8757.07  706.40  0. 1.0000     0. 
  -1  10  -1   8420.15  642.70  0. 1.0000     0. 
   1 -10   2   7265.00  565.40  0. 1.0000     0. 
  -1  10   2   7211.20  678.93  0. 1.0000     0. 
  -1 -10  -2   7449.03  646.94  0. 1.0000     0. 
   1  10   2   7310.30  661.10  0. 1.0000     0. 
  -1 -10   2   6984.70  570.22  0. 1.0000     0. 
   1 -10  -2   7664.21  632.78  0. 1.0000     0. 
  -1  10  -2   6778.02  531.99  0. 1.0000     0. 
   1 -10   3    868.91  258.58  0. 1.0000     0. 
  -1  10   3    794.45  376.56  0. 1.0000     0. 
   1  10  -3    791.90  236.44  0. 1.0000     0. 
  -1 -10  -3    868.91  402.60  0. 1.0000     0. 
   1  10   3    681.77  416.76  0. 1.0000     0. 
  -1 -10   3    802.09  291.05  0. 1.0000     0. 
   1 -10  -3   1172.99  398.07  0. 1.0000     0. 
  -1  10  -3    875.71  255.69  0. 1.0000     0. 
   1 -10   4    -98.92  258.32  0. 1.0000     0. 
  -1  10   4    136.49  373.73  0. 1.0000     0. 
   1  10  -4    -19.25  214.84  0. 1.0000     0. 
  -1 -10  -4    -65.23  438.28  0. 1.0000     0. 
   1  10   4     60.45  401.47  0. 1.0000     0. 
  -1 -10   4     33.24  240.03  0. 1.0000     0. 
   1 -10  -4    153.09  370.89  0. 1.0000     0. 
  -1  10  -4     26.46  182.36  0. 1.0000     0. 
   1 -10   5     98.70  232.73  0. 1.0000     0. 
  -1  10   5    356.17  431.77  0. 1.0000     0. 
   1  10  -5     12.21  206.51  0. 1.0000     0. 
  -1 -10  -5     69.00  418.74  0. 1.0000     0. 
   1  10   5    230.52  444.51  0. 1.0000     0. 
  -1 -10   5     62.09  245.41  0. 1.0000     0. 
   1 -10  -5    284.54  738.11  0. 1.0000     0. 
   1 -10   6   1381.37  257.30  0. 1.0000     0. 
  -1  10   6    738.11  481.03  0. 1.0000     0. 
   1  10  -6   1179.22  217.21  0. 1.0000     0. 
  -1 -10  -6    934.03  451.58  0. 1.0000     0. 
   1  10   6    864.67  455.83  0. 1.0000     0. 
  -1 -10   6    767.27  240.54  0. 1.0000     0. 
   1 -10  -6   1122.03  898.92  0. 1.0000     0. 
  -1  10  -6    938.28  196.46  0. 1.0000     0. 
   1 -10   7   5713.47  436.30  0. 1.0000     0. 
  -1  10   7   5246.31  702.43  0. 1.0000     0. 
   1  10  -7   5036.80  409.97  0. 1.0000     0. 
   1  10   7   4266.70  627.41  0. 1.0000     0. 
  -1 -10   7   4864.09  412.51  0. 1.0000     0. 
  -1  10  -7   4688.56  355.04  0. 1.0000     0. 
   1 -10   8   1505.38  243.69  0. 1.0000     0. 
   1  10  -8   1167.61  200.71  0. 1.0000     0. 
  -1 -10   8   1305.49  250.76  0. 1.0000     0. 
  -1  10  -8   1153.17  160.70  0. 1.0000     0. 
   1 -10   9    522.08  212.57  0. 1.0000     0. 
   1  10  -9    616.65  146.32  0. 1.0000     0. 
  -1 -10   9    477.63  209.29  0. 1.0000     0. 
  -1  10  -9    579.27  113.70  0. 1.0000     0. 
   1  10 -10   2131.09  229.08  0. 1.0000     0. 
  -1  10 -10   1886.75  174.60  0. 1.0000     0. 
   1  11   0   -107.79  380.52  0. 1.0000     0. 
   1 -11   0     79.87  362.97  0. 1.0000     0. 
  -1  11   0   -217.67  335.22  0. 1.0000     0. 
   1 -11   1   4861.26  503.68  0. 1.0000     0. 
  -1 -11  -1   3864.66  541.34  0. 1.0000     0. 
   1  11   1   3765.57  523.50  0. 1.0000     0. 
  -1 -11   1   4110.98  541.34  0. 1.0000     0. 
   1 -11  -1   3960.92  520.39  0. 1.0000     0. 
  -1  11  -1   4892.41  472.25  0. 1.0000     0. 
   1 -11   2   4040.20  452.43  0. 1.0000     0. 
  -1  11   2   3422.99  506.79  0. 1.0000     0. 
   1  11  -2   3674.97  403.45  0. 1.0000     0. 
  -1 -11  -2   3343.71  555.49  0. 1.0000     0. 
   1  11   2   3434.31  490.66  0. 1.0000     0. 
  -1 -11   2   3479.61  442.24  0. 1.0000     0. 
  -1  11  -2   3941.11  475.93  0. 1.0000     0. 
  -1  11   3     -5.48  399.21  0. 1.0000     0. 
   1  11  -3     18.34  220.38  0. 1.0000     0. 
  -1 -11  -3    308.61  495.19  0. 1.0000     0. 
   1  11   3    158.83  385.62  0. 1.0000     0. 
  -1 -11   3    -15.55  284.82  0. 1.0000     0. 
   1 -11  -3      7.76  422.71  0. 1.0000     0. 
  -1  11  -3     48.27  193.01  0. 1.0000     0. 
   1 -11   4    246.91  289.35  0. 1.0000     0. 
  -1  11   4    -11.70  413.65  0. 1.0000     0. 
   1  11  -4    103.34  211.55  0. 1.0000     0. 
  -1 -11   4    290.49  256.06  0. 1.0000     0. 
   1 -11  -4    198.81  526.90  0. 1.0000     0. 
   1 -11   5    275.79  261.58  0. 1.0000     0. 
  -1  11   5    140.80  488.96  0. 1.0000     0. 
   1  11  -5    400.91  204.73  0. 1.0000     0. 
   1  11   5    274.41  525.20  0. 1.0000     0. 
  -1 -11   5    185.08  252.46  0. 1.0000     0. 
  -1  11  -5    289.35  173.90  0. 1.0000     0. 
   1 -11   6    647.79  282.16  0. 1.0000     0. 
   1  11  -6    967.16  206.71  0. 1.0000     0. 
  -1 -11   6    470.55  241.03  0. 1.0000     0. 
  -1  11  -6    842.58  184.26  0. 1.0000     0. 
   1 -11   7    782.28  284.82  0. 1.0000     0. 
   1  11  -7    697.90  202.12  0. 1.0000     0. 
  -1 -11   7    435.16  201.56  0. 1.0000     0. 
   1 -11   8     57.25  232.36  0. 1.0000     0. 
   1  11  -8     34.74  175.28  0. 1.0000     0. 
  -1 -11   8     49.07  224.18  0. 1.0000     0. 
  -1  11  -8     -1.15  121.63  0. 1.0000     0. 
   1 -12   0     51.59  366.93  0. 1.0000     0. 
  -1  12   0     74.97  292.18  0. 1.0000     0. 
   1 -12   1     39.35  378.82  0. 1.0000     0. 
  -1  12   1     64.24  392.98  0. 1.0000     0. 
   1  12  -1    -38.59  292.47  0. 1.0000     0. 
  -1 -12   1      1.75  454.42  0. 1.0000     0. 
   1 -12  -1    139.55  453.00  0. 1.0000     0. 
  -1  12  -1    -45.84  322.48  0. 1.0000     0. 
   1 -12   2    854.19  402.89  0. 1.0000     0. 
   1  12  -2    931.77  315.97  0. 1.0000     0. 
  -1 -12   2   1019.82  440.83  0. 1.0000     0. 
  -1  12  -2    767.27  311.72  0. 1.0000     0. 
   1 -12   3   2125.14  437.43  0. 1.0000     0. 
   1  12  -3   1418.46  322.20  0. 1.0000     0. 
  -1 -12   3   2009.34  419.31  0. 1.0000     0. 
  -1  12  -3   1692.81  292.47  0. 1.0000     0. 
   1 -12   4    216.79  355.32  0. 1.0000     0. 
   1  12  -4    350.51  265.32  0. 1.0000     0. 
  -1 -12   4    505.38  338.33  0. 1.0000     0. 
  -1  12  -4    290.77  166.87  0. 1.0000     0. 
   1  12  -5    492.64  210.56  0. 1.0000     0. 
  -1 -12   5    444.51  318.80  0. 1.0000     0. 
  -1  12  -5    237.29  172.28  0. 1.0000     0. 
   1  12  -6    967.44  262.20  0. 1.0000     0. 
  -1  12  -6    939.69  212.82  0. 1.0000     0. 
   2   0   0 240600.0213117.00  0. 1.0000     0. 
  -2   0   0 258465.0014088.00  0. 1.0000     0. 
   2   0   1  13969.00  787.66  0. 1.0000     0. 
   2   0  -1  15260.00  883.07  0. 1.0000     0. 
  -2   0  -1  15997.00  899.77  0. 1.0000     0. 
   2   0   2 377971.9720597.00  0. 1.0000     0. 
  -2   0   2 394393.9721492.00  0. 1.0000     0. 
   2   0  -2 351076.0019139.00  0. 1.0000     0. 
  -2   0  -2 407134.0322177.00  0. 1.0000     0. 
  -2   0   3 708380.0038562.00  0. 1.0000     0. 
   2   0  -3 683181.9437203.00  0. 1.0000     0. 
  -2   0  -3 588901.0032106.00  0. 1.0000     0. 
   2   0   4 423272.0023097.00  0. 1.0000     0. 
  -2   0   4 381653.0020815.00  0. 1.0000     0. 
  -2   0   4 349377.0319049.00  0. 1.0000     0. 
  -2   0  -4 377122.9720566.00  0. 1.0000     0. 
  -2   0   5 178794.00 9796.14  0. 1.0000     0. 
  -2   0   5 192299.0010544.00  0. 1.0000     0. 
  -2   0  -5 197819.9810801.00  0. 1.0000     0. 
   2   0   6 237684.0212967.00  0. 1.0000     0. 
  -2   0   6 261240.0014315.00  0. 1.0000     0. 
  -2   0   6 218403.0011956.00  0. 1.0000     0. 
   2   0   7  37061.00 2039.35  0. 1.0000     0. 
  -2   0   7  30549.00 1774.63  0. 1.0000     0. 
   2   0   8  11396.00  654.59  0. 1.0000     0. 
   2   0   8  10280.00  589.18  0. 1.0000     0. 
   2   0   9    977.92  124.15  0. 1.0000     0. 
  -2   0   9    676.95  257.19  0. 1.0000     0. 
   2   0  11 104700.00 5738.95  0. 1.0000     0. 
   2   0  11 116505.99 6373.15  0. 1.0000     0. 
  -2   0  11 102435.00 5716.30  0. 1.0000     0. 
  -2   0  11 106908.01 5908.83  0. 1.0000     0. 
   2   0  12  24029.00 1348.53  0. 1.0000     0. 
  -2   0  12  28165.00 1783.69  0. 1.0000     0. 
  -2   0  12  23723.00 1387.31  0. 1.0000     0. 
   2   0  13   8255.94  493.49  0. 1.0000     0. 
  -2   0  13   8077.57  526.90  0. 1.0000     0. 
  -2   0  13   9674.40  648.92  0. 1.0000     0. 
   2   0  14  12766.00  733.29  0. 1.0000     0. 
   2   0  14  12820.00  730.75  0. 1.0000     0. 
  -2   0  14  12517.00  789.07  0. 1.0000     0. 
  -2   0  14  10779.00  702.72  0. 1.0000     0. 
  -2   0  15   7749.14  512.46  0. 1.0000     0. 
  -2   0  15   7426.38  572.48  0. 1.0000     0. 
   2   1   0  57588.00 3173.84  0. 1.0000     0. 
  -2  -1   0  58494.00 3227.63  0. 1.0000     0. 
  -2   1   0  66619.00 3657.98  0. 1.0000     0. 
  -2   1   0  54558.00 2992.64  0. 1.0000     0. 
  -2   1   1  87939.00 4821.63  0. 1.0000     0. 
  -2   1   1  90374.00 4963.19  0. 1.0000     0. 
   2   1  -1  80351.00 4413.93  0. 1.0000     0. 
  -2  -1  -1  93262.00 5107.58  0. 1.0000     0. 
   2   1   1  91365.01 5005.66  0. 1.0000     0. 
  -2   1  -1  84824.00 4631.93  0. 1.0000     0. 
  -2   1  -1  93771.01 5124.57  0. 1.0000     0. 
  -2  -1  -2 187994.9810249.00  0. 1.0000     0. 
   2   1   2 553510.0030125.00  0. 1.0000     0. 
  -2  -1   2 589183.9432078.00  0. 1.0000     0. 
  -2   1  -2 564835.0030832.00  0. 1.0000     0. 
  -2   1  -2 554643.0030266.00  0. 1.0000     0. 
  -2   1   3 187967.0010292.00  0. 1.0000     0. 
  -2   1   3 188505.0010306.00  0. 1.0000     0. 
   2   1  -3 164892.02 9031.70  0. 1.0000     0. 
  -2  -1  -3 185872.0010127.00  0. 1.0000     0. 
   2   1   3 187118.0010201.00  0. 1.0000     0. 
  -2  -1   3 173782.00 9513.01  0. 1.0000     0. 
  -2   1   4  37910.00 2121.74  0. 1.0000     0. 
  -2   1   4  37854.00 2115.51  0. 1.0000     0. 
   2   1  -4  33607.00 1897.79  0. 1.0000     0. 
  -2  -1  -4  39921.00 2189.69  0. 1.0000     0. 
   2   1   4  38052.00 2099.38  0. 1.0000     0. 
  -2  -1   4  35391.00 1998.87  0. 1.0000     0. 
  -2   1   5  98584.00 5430.35  0. 1.0000     0. 
  -2   1   5  82616.00 4572.48  0. 1.0000     0. 
   2   1  -5  88363.01 4872.59  0. 1.0000     0. 
  -2  -1  -5  87457.00 4773.49  0. 1.0000     0. 
   2   1   5  88477.00 4841.44  0. 1.0000     0. 
  -2  -1   5  85899.99 4756.51  0. 1.0000     0. 
   2  -1   6 200934.0011155.00  0. 1.0000     0. 
   2  -1   6 180068.00 9997.16  0. 1.0000     0. 
  -2   1   6 192723.0210549.00  0. 1.0000     0. 
  -2   1   6 196659.0210804.00  0. 1.0000     0. 
  -2  -1  -6 183607.0010031.00  0. 1.0000     0. 
   2   1   6 188448.0210277.00  0. 1.0000     0. 
  -2  -1   6 175736.00 9623.43  0. 1.0000     0. 
  -2  -1   6 174886.98 9589.46  0. 1.0000     0. 
   2  -1   7 110589.01 6075.87  0. 1.0000     0. 
   2  -1   7 128369.00 7044.16  0. 1.0000     0. 
  -2   1   7 114156.01 6271.23  0. 1.0000     0. 
  -2  -1  -7 120187.00 6579.83  0. 1.0000     0. 
   2   1   7 128794.00 7035.67  0. 1.0000     0. 
  -2  -1   7 126982.00 7021.51  0. 1.0000     0. 
  -2  -1   7 109145.00 6030.57  0. 1.0000     0. 
   2  -1   8  19496.00 1080.97  0. 1.0000     0. 
   2  -1   8  16702.00  936.30  0. 1.0000     0. 
  -2   1   8  17172.00 1039.92  0. 1.0000     0. 
  -2   1   8  19983.00 1218.01  0. 1.0000     0. 
  -2  -1  -8  20161.00 1171.29  0. 1.0000     0. 
   2   1   8  19652.00 1109.29  0. 1.0000     0. 
   2  -1   9   8001.12  465.46  0. 1.0000     0. 
   2  -1   9   7664.21  441.68  0. 1.0000     0. 
  -2   1   9   9144.95  603.62  0. 1.0000     0. 
  -2  -1  -9   6857.30  441.68  0. 1.0000     0. 
   2   1   9   7463.19  453.85  0. 1.0000     0. 
  -2  -1   9   8355.03  556.06  0. 1.0000     0. 
  -2  -1   9   7276.32  594.28  0. 1.0000     0. 
   2  -1  10  67694.99 3720.27  0. 1.0000     0. 
   2  -1  10  68743.01 3771.23  0. 1.0000     0. 
  -2   1  10  69168.01 3856.17  0. 1.0000     0. 
  -2   1  10  64694.00 3714.61  0. 1.0000     0. 
   2   1  10  67809.00 3728.76  0. 1.0000     0. 
  -2  -1  10  65034.00 3677.80  0. 1.0000     0. 
  -2  -1  10  67694.99 3759.91  0. 1.0000     0. 
   2  -1  11  55747.00 3063.42  0. 1.0000     0. 
   2  -1  11  50453.00 2778.03  0. 1.0000     0. 
  -2   1  11  48160.00 2771.51  0. 1.0000     0. 
  -2   1  11  51925.00 2921.85  0. 1.0000     0. 
   2   1  11  50934.00 2818.23  0. 1.0000     0. 
   2   1  11  55946.00 3086.07  0. 1.0000     0. 
  -2  -1  11  51048.00 2930.35  0. 1.0000     0. 
  -2  -1  11  52378.00 2967.15  0. 1.0000     0. 
   2  -1  12  13907.00  783.41  0. 1.0000     0. 
   2  -1  12  13174.00  746.32  0. 1.0000     0. 
  -2   1  12  12993.00  797.56  0. 1.0000     0. 
  -2   1  12  11334.00  708.95  0. 1.0000     0. 
   2   1  12  11274.00  659.12  0. 1.0000     0. 
   2   1  12  13658.00  794.73  0. 1.0000     0. 
  -2  -1  12  13344.00  941.96  0. 1.0000     0. 
   2  -1  13   2180.35  149.83  0. 1.0000     0. 
   2  -1  13   1850.51  144.71  0. 1.0000     0. 
  -2   1  13   1908.27  214.24  0. 1.0000     0. 
  -2   1  13   1526.05  281.11  0. 1.0000     0. 
   2   1  13   1549.26  190.94  0. 1.0000     0. 
  -2  -1  13   1606.74  406.29  0. 1.0000     0. 
  -2  -1  13   2092.30  238.73  0. 1.0000     0. 
  -2   1  14   7893.54  516.99  0. 1.0000     0. 
  -2   1  14   6191.95  473.10  0. 1.0000     0. 
   2   1  14   6894.10  442.81  0. 1.0000     0. 
  -2  -1  14   7502.82  500.57  0. 1.0000     0. 
  -2   1  15  13961.00  835.50  0. 1.0000     0. 
  -2  -1  15  11577.00  770.95  0. 1.0000     0. 
  -2  -1  15  13446.00  816.53  0. 1.0000     0. 
   2   2   0 376273.9720495.00  0. 1.0000     0. 
   2  -2   0 364665.9719864.00  0. 1.0000     0. 
  -2   2   0 369479.0020116.00  0. 1.0000     0. 
   2  -2   1 602491.0032786.00  0. 1.0000     0. 
  -2   2   1 619478.0633720.00  0. 1.0000     0. 
   2   2  -1 626273.0634088.00  0. 1.0000     0. 
  -2  -2  -1 623725.0033947.00  0. 1.0000     0. 
   2   2   1 597395.0032503.00  0. 1.0000     0. 
  -2  -2   1 546998.0029756.00  0. 1.0000     0. 
   2  -2  -1 546432.0029728.00  0. 1.0000     0. 
   2  -2   2 388448.0321175.00  0. 1.0000     0. 
  -2   2   2 364665.9719881.00  0. 1.0000     0. 
   2   2  -2 416193.9722712.00  0. 1.0000     0. 
  -2  -2  -2 396659.0321605.00  0. 1.0000     0. 
   2   2   2 343997.0018734.00  0. 1.0000     0. 
  -2  -2   2 340033.9718542.00  0. 1.0000     0. 
   2  -2  -2 378256.0020623.00  0. 1.0000     0. 
  -2   2  -2 363532.9719802.00  0. 1.0000     0. 
   2  -2   3  31625.00 1742.64  0. 1.0000     0. 
  -2   2   3  33947.00 1924.12  0. 1.0000     0. 
  -2  -2  -3  29388.00 1631.09  0. 1.0000     0. 
   2   2   3  28652.00 1600.79  0. 1.0000     0. 
   2  -2  -3  34881.00 1985.28  0. 1.0000     0. 
  -2   2  -3  28341.00 1562.00  0. 1.0000     0. 
  -2   2   4  35334.00 2001.98  0. 1.0000     0. 
   2   2  -4  37769.00 2119.48  0. 1.0000     0. 
  -2  -2  -4  37344.00 2058.04  0. 1.0000     0. 
   2   2   4  39977.00 2217.16  0. 1.0000     0. 
  -2  -2   4  38562.00 2182.90  0. 1.0000     0. 
  -2   2   5  10841.00  693.09  0. 1.0000     0. 
  -2  -2  -5   9464.88  547.28  0. 1.0000     0. 
   2   2   5   8782.55  530.01  0. 1.0000     0. 
   2  -2  -5  10677.00  709.51  0. 1.0000     0. 
  -2   2   6 197791.0010864.00  0. 1.0000     0. 
   2   2  -6 220526.0012053.00  0. 1.0000     0. 
  -2  -2   6 207220.0011362.00  0. 1.0000     0. 
  -2   2   7 264920.0014555.00  0. 1.0000     0. 
   2   2  -7 267185.0014598.00  0. 1.0000     0. 
   2   2   7 258352.0014088.00  0. 1.0000     0. 
  -2  -2   7 280860.0315382.00  0. 1.0000     0. 
   2  -2  -7 235729.9812896.00  0. 1.0000     0. 
   2  -2   8 113533.01 6378.82  0. 1.0000     0. 
   2  -2   8 116393.00 6537.37  0. 1.0000     0. 
  -2   2   8 105549.00 5821.06  0. 1.0000     0. 
  -2   2   8 113646.99 6344.84  0. 1.0000     0. 
  -2  -2  -8 112599.00 6203.28  0. 1.0000     0. 
   2   2   8 116874.01 6395.80  0. 1.0000     0. 
  -2  -2   8  97225.00 5385.05  0. 1.0000     0. 
  -2  -2   8 108833.00 6030.57  0. 1.0000     0. 
   2  -2   9  64213.00 3564.55  0. 1.0000     0. 
   2  -2   9  64977.00 3609.85  0. 1.0000     0. 
  -2   2   9  66619.00 3700.45  0. 1.0000     0. 
  -2  -2  -9  65175.00 3649.49  0. 1.0000     0. 
   2   2   9  66788.99 3680.63  0. 1.0000     0. 
  -2  -2   9  62429.00 3558.89  0. 1.0000     0. 
  -2  -2   9  59400.00 3338.05  0. 1.0000     0. 
   2  -2  10  47933.00 2661.66  0. 1.0000     0. 
   2  -2  10  50113.00 2785.39  0. 1.0000     0. 
  -2   2  10  45838.00 2569.08  0. 1.0000     0. 
  -2   2  10  46065.00 2576.16  0. 1.0000     0. 
  -2  -2 -10  51189.00 2919.02  0. 1.0000     0. 
   2   2  10  50340.00 2792.75  0. 1.0000     0. 
  -2  -2  10  43800.00 2477.35  0. 1.0000     0. 
  -2  -2  10  47225.00 2757.36  0. 1.0000     0. 
  -2   2  11  27339.00 1593.71  0. 1.0000     0. 
  -2   2  11  30266.00 1730.75  0. 1.0000     0. 
  -2  -2 -11  29756.00 1699.60  0. 1.0000     0. 
   2   2  11  28216.00 1586.63  0. 1.0000     0. 
   2   2  11  28369.00 1601.64  0. 1.0000     0. 
  -2  -2  11  26622.00 1545.02  0. 1.0000     0. 
  -2  -2  11  31625.00 1874.29  0. 1.0000     0. 
  -2   2  12    439.69  227.63  0. 1.0000     0. 
  -2   2  12    517.55  159.68  0. 1.0000     0. 
   2   2  12    310.59  165.63  0. 1.0000     0. 
   2   2  12    463.76   90.94  0. 1.0000     0. 
  -2  -2  12    537.94  176.90  0. 1.0000     0. 
  -2   2  13    460.65  140.63  0. 1.0000     0. 
   2   2  13    233.95  172.03  0. 1.0000     0. 
  -2  -2  13    225.57  318.23  0. 1.0000     0. 
  -2  -2  13    258.04  140.60  0. 1.0000     0. 
   2   2  14   9048.69  575.59  0. 1.0000     0. 
   2   2  14  10626.00  622.03  0. 1.0000     0. 
   2   3   0  74179.00 4079.84  0. 1.0000     0. 
   2  -3   0  83380.00 4580.97  0. 1.0000     0. 
  -2   3   0  79189.99 4331.82  0. 1.0000     0. 
   2  -3   1 199349.0010892.00  0. 1.0000     0. 
  -2   3   1 178312.00 9719.70  0. 1.0000     0. 
  -2  -3  -1 191563.0010467.00  0. 1.0000     0. 
   2   3   1 204162.0011172.00  0. 1.0000     0. 
  -2  -3   1 192101.0010512.00  0. 1.0000     0. 
   2  -3  -1 187287.0210238.00  0. 1.0000     0. 
  -2   3  -1 178822.00 9745.18  0. 1.0000     0. 
   2  -3   2 289071.0315742.00  0. 1.0000     0. 
  -2   3   2 291619.0015881.00  0. 1.0000     0. 
   2   3  -2 289071.0315770.00  0. 1.0000     0. 
  -2  -3  -2 293601.0016008.00  0. 1.0000     0. 
   2   3   2 289636.9715793.00  0. 1.0000     0. 
  -2  -3   2 273329.0314907.00  0. 1.0000     0. 
   2  -3  -2 292468.9715954.00  0. 1.0000     0. 
  -2   3  -2 304926.0016608.00  0. 1.0000     0. 
   2  -3   3 123301.00 6724.23  0. 1.0000     0. 
   2   3  -3 120583.01 6639.29  0. 1.0000     0. 
  -2  -3  -3 117186.00 6409.96  0. 1.0000     0. 
   2   3   3 122254.01 6698.75  0. 1.0000     0. 
  -2  -3   3 111155.01 6098.52  0. 1.0000     0. 
   2  -3  -3 134371.00 7395.24  0. 1.0000     0. 
  -2   3  -3 128284.01 7004.52  0. 1.0000     0. 
  -2   3   4   3740.09  274.94  0. 1.0000     0. 
  -2  -3  -4   3292.75  240.32  0. 1.0000     0. 
   2   3   4   2425.25  223.02  0. 1.0000     0. 
  -2  -3   4   2090.88  222.54  0. 1.0000     0. 
  -2   3  -4   2254.81  150.91  0. 1.0000     0. 
   2  -3   5  64524.00 3541.90  0. 1.0000     0. 
  -2   3   5  57503.00 3173.84  0. 1.0000     0. 
   2   3  -5  60561.00 3374.85  0. 1.0000     0. 
  -2  -3  -5  60108.00 3304.07  0. 1.0000     0. 
   2   3   5  62571.00 3454.13  0. 1.0000     0. 
  -2  -3   5  57191.00 3196.49  0. 1.0000     0. 
  -2   3  -5  61721.00 3391.84  0. 1.0000     0. 
   2  -3   6 143969.00 7978.47  0. 1.0000     0. 
   2  -3   6 155011.00 8581.53  0. 1.0000     0. 
  -2   3   6 145385.00 7952.99  0. 1.0000     0. 
   2   3  -6 153058.02 8408.83  0. 1.0000     0. 
  -2  -3  -6 145555.02 7944.50  0. 1.0000     0. 
  -2  -3   6 148811.00 8182.32  0. 1.0000     0. 
   2  -3  -6 155068.00 8581.53  0. 1.0000     0. 
   2  -3   7 155492.00 8776.89  0. 1.0000     0. 
   2  -3   7 150708.00 8502.26  0. 1.0000     0. 
  -2   3   7 146970.00 8040.76  0. 1.0000     0. 
   2   3   7 154303.00 8445.63  0. 1.0000     0. 
   2  -3  -7 153086.00 8479.61  0. 1.0000     0. 
  -2   3   8  29700.00 1684.60  0. 1.0000     0. 
   2   3   8  30521.00 1729.05  0. 1.0000     0. 
  -2  -3   8  26189.00 1526.33  0. 1.0000     0. 
   2  -3  -8  30662.00 1810.30  0. 1.0000     0. 
  -2   3   9   8267.26  548.41  0. 1.0000     0. 
   2   3  -9   8054.92  524.63  0. 1.0000     0. 
  -2  -3  -9   8677.79  639.58  0. 1.0000     0. 
   2   3   9   9221.40  586.92  0. 1.0000     0. 
  -2  -3   9   8632.49  579.28  0. 1.0000     0. 
  -2  -3   9   7344.27  551.24  0. 1.0000     0. 
   2  -3  -9   8037.93  613.82  0. 1.0000     0. 
  -2   3  10  42667.00 2409.68  0. 1.0000     0. 
  -2   3  10  47027.00 2647.51  0. 1.0000     0. 
  -2  -3 -10  41053.00 2364.66  0. 1.0000     0. 
   2   3  10  44847.00 2504.24  0. 1.0000     0. 
  -2  -3  10  39383.00 2317.38  0. 1.0000     0. 
  -2  -3  10  40997.00 2330.12  0. 1.0000     0. 
  -2   3  11  28174.00 1627.12  0. 1.0000     0. 
  -2   3  11  29247.00 1693.94  0. 1.0000     0. 
  -2  -3 -11  28681.00 1727.07  0. 1.0000     0. 
   2   3  11  29360.00 1670.16  0. 1.0000     0. 
  -2  -3  11  24771.00 1451.58  0. 1.0000     0. 
  -2  -3  11  27279.00 1714.61  0. 1.0000     0. 
  -2   3  12   8386.17  603.06  0. 1.0000     0. 
  -2  -3 -12   8451.29  629.95  0. 1.0000     0. 
   2   3  12   8578.70  559.46  0. 1.0000     0. 
  -2  -3  12   9612.11  785.11  0. 1.0000     0. 
  -2   3  13   2238.39  222.11  0. 1.0000     0. 
   2   3  13   1679.22  248.41  0. 1.0000     0. 
  -2  -3  13    626.84  407.42  0. 1.0000     0. 
  -2  -3  13   1787.09  211.89  0. 1.0000     0. 
  -2   3  14   9569.64  609.85  0. 1.0000     0. 
  -2   3  14   9088.33  706.11  0. 1.0000     0. 
   2   3  14   8918.45  531.43  0. 1.0000     0. 
   2   3  14   8765.56  582.96  0. 1.0000     0. 
  -2  -3  14   8456.96  545.87  0. 1.0000     0. 
   2   4   0  65544.00 3618.34  0. 1.0000     0. 
  -2  -4   0  63080.00 3499.43  0. 1.0000     0. 
   2  -4   0  66788.99 3652.32  0. 1.0000     0. 
  -2   4   0  61721.00 3389.01  0. 1.0000     0. 
   2  -4   1   4858.43  300.96  0. 1.0000     0. 
  -2   4   1   5155.71  339.75  0. 1.0000     0. 
   2   4  -1   5874.85  408.27  0. 1.0000     0. 
  -2  -4  -1   5696.48  407.13  0. 1.0000     0. 
   2   4   1   5571.91  398.92  0. 1.0000     0. 
  -2  -4   1   5464.32  399.49  0. 1.0000     0. 
   2  -4  -1   5150.05  431.20  0. 1.0000     0. 
  -2   4  -1   5243.48  333.52  0. 1.0000     0. 
   2  -4   2 237486.0012933.00  0. 1.0000     0. 
  -2   4   2 239269.0013046.00  0. 1.0000     0. 
   2   4  -2 258181.9814111.00  0. 1.0000     0. 
  -2  -4  -2 245838.0013414.00  0. 1.0000     0. 
   2   4   2 263703.0014417.00  0. 1.0000     0. 
  -2  -4   2 241336.0013182.00  0. 1.0000     0. 
   2  -4  -2 246092.9813451.00  0. 1.0000     0. 
  -2   4  -2 249802.0213616.00  0. 1.0000     0. 
  -2   4   3 329275.0017939.00  0. 1.0000     0. 
   2   4  -3 339184.0318511.00  0. 1.0000     0. 
  -2  -4  -3 329275.0017953.00  0. 1.0000     0. 
   2   4   3 342016.0018647.00  0. 1.0000     0. 
  -2  -4   3 345130.0018865.00  0. 1.0000     0. 
   2  -4  -3 345695.9718873.00  0. 1.0000     0. 
  -2   4  -3 354755.9719335.00  0. 1.0000     0. 
   2  -4   4 233748.0012738.00  0. 1.0000     0. 
   2   4  -4 233295.0212777.00  0. 1.0000     0. 
  -2  -4  -4 230153.0012554.00  0. 1.0000     0. 
   2   4   4 233380.0212755.00  0. 1.0000     0. 
  -2  -4   4 219960.0012019.00  0. 1.0000     0. 
   2  -4  -4 250396.0013726.00  0. 1.0000     0. 
   2  -4   5 130832.00 7143.25  0. 1.0000     0. 
  -2   4   5 126046.99 6911.09  0. 1.0000     0. 
   2   4  -5 117724.00 6477.91  0. 1.0000     0. 
  -2  -4  -5 124915.00 6837.48  0. 1.0000     0. 
   2   4   5 125708.01 6902.60  0. 1.0000     0. 
  -2  -4   5 118260.99 6500.56  0. 1.0000     0. 
  -2   4  -5 117667.01 6435.44  0. 1.0000     0. 
   2  -4   6 156767.02 8564.54  0. 1.0000     0. 
  -2   4   6 156512.00 8570.21  0. 1.0000     0. 
  -2  -4  -6 155153.00 8479.61  0. 1.0000     0. 
  -2  -4   6 140940.00 7734.99  0. 1.0000     0. 
   2  -4  -6 152067.02 8400.33  0. 1.0000     0. 
  -2   4  -6 142864.98 7814.26  0. 1.0000     0. 
   2  -4   7  24490.00 1353.34  0. 1.0000     0. 
  -2   4   7  26928.00 1542.75  0. 1.0000     0. 
  -2  -4  -7  27701.00 1561.44  0. 1.0000     0. 
   2   4   7  25362.00 1463.48  0. 1.0000     0. 
  -2  -4   7  21220.00 1234.99  0. 1.0000     0. 
  -2   4  -7  21223.00 1177.52  0. 1.0000     0. 
   2  -4   8   2563.70  192.70  0. 1.0000     0. 
   2  -4   8   3040.77  188.22  0. 1.0000     0. 
  -2   4   8   2799.26  295.87  0. 1.0000     0. 
  -2  -4  -8   2583.80  403.45  0. 1.0000     0. 
   2   4   8   3604.19  339.75  0. 1.0000     0. 
  -2  -4   8   3816.53  317.67  0. 1.0000     0. 
   2  -4  -8   2561.44  466.31  0. 1.0000     0. 
  -2   4   9    631.65  236.38  0. 1.0000     0. 
   2   4  -9   1100.23  156.96  0. 1.0000     0. 
  -2  -4  -9    806.06  279.11  0. 1.0000     0. 
   2   4   9    585.79  213.14  0. 1.0000     0. 
  -2  -4   9    964.89  196.83  0. 1.0000     0. 
   2  -4  -9    481.60  383.07  0. 1.0000     0. 
  -2   4  10  26911.00 1610.70  0. 1.0000     0. 
  -2  -4 -10  24505.00 1510.47  0. 1.0000     0. 
   2   4  10  28737.00 1656.85  0. 1.0000     0. 
  -2  -4  10  28264.00 1629.39  0. 1.0000     0. 
  -2   4  11  65175.00 3660.81  0. 1.0000     0. 
  -2   4  11  70724.99 3941.11  0. 1.0000     0. 
  -2  -4 -11  65402.00 3757.07  0. 1.0000     0. 
   2   4  11  61778.00 3468.29  0. 1.0000     0. 
  -2  -4  11  58324.00 3241.79  0. 1.0000     0. 
  -2   4  12  23457.00 1422.42  0. 1.0000     0. 
  -2  -4 -12  22021.00 1467.44  0. 1.0000     0. 
   2   4  12  22460.00 1312.29  0. 1.0000     0. 
  -2  -4  12  18910.00 1095.70  0. 1.0000     0. 
  -2  -4  12  21212.00 1465.46  0. 1.0000     0. 
  -2   4  13   7355.60  630.52  0. 1.0000     0. 
  -2   4  13   5781.42  396.66  0. 1.0000     0. 
  -2  -4 -13   5775.76  571.63  0. 1.0000     0. 
   2   4  13   6817.66  501.98  0. 1.0000     0. 
  -2  -4  13   6039.07  407.98  0. 1.0000     0. 
  -2  -4  13   7355.60  716.31  0. 1.0000     0. 
  -2   4  14   9844.27  639.58  0. 1.0000     0. 
  -2   4  14   9988.67  768.97  0. 1.0000     0. 
   2   4  14   8437.14  509.06  0. 1.0000     0. 
   2   4  14   9122.30  625.14  0. 1.0000     0. 
  -2  -4  14   7103.62  883.92  0. 1.0000     0. 
  -2  -4  14   8448.46  525.20  0. 1.0000     0. 
   2  -5   0   3190.82  237.77  0. 1.0000     0. 
  -2   5   0   2995.47  238.70  0. 1.0000     0. 
   2  -5   1  34909.00 1934.03  0. 1.0000     0. 
  -2   5   1  34485.00 1927.52  0. 1.0000     0. 
   2   5  -1  33522.00 1895.24  0. 1.0000     0. 
   2   5   1  34626.00 1971.69  0. 1.0000     0. 
  -2  -5   1  40289.00 2304.64  0. 1.0000     0. 
   2  -5  -1  38845.00 2145.24  0. 1.0000     0. 
  -2   5  -1  35589.00 1984.14  0. 1.0000     0. 
  -2   5   2 186608.0010193.00  0. 1.0000     0. 
   2   5  -2 199179.0010912.00  0. 1.0000     0. 
  -2  -5  -2 205747.0211251.00  0. 1.0000     0. 
  -2   5  -2 202435.0011050.00  0. 1.0000     0. 
   2  -5   3 173188.00 9447.90  0. 1.0000     0. 
  -2   5   3 171036.02 9354.46  0. 1.0000     0. 
   2   5  -3 203481.9811195.00  0. 1.0000     0. 
  -2  -5  -3 161522.98 8842.01  0. 1.0000     0. 
   2   5   3 170866.00 9379.95  0. 1.0000     0. 
   2  -5  -3 181964.9810006.00  0. 1.0000     0. 
  -2   5  -3 175906.00 9614.94  0. 1.0000     0. 
   2  -5   4  40034.00 2206.40  0. 1.0000     0. 
  -2  -5  -4  40345.00 2257.36  0. 1.0000     0. 
   2   5   4  39043.00 2216.87  0. 1.0000     0. 
  -2  -5   4  41563.00 2348.53  0. 1.0000     0. 
   2  -5  -4  42554.00 2446.77  0. 1.0000     0. 
  -2   5  -4  41903.00 2337.48  0. 1.0000     0. 
   2  -5   5  70866.01 3881.65  0. 1.0000     0. 
  -2   5   5  62061.00 3451.30  0. 1.0000     0. 
   2   5  -5  72564.99 4054.36  0. 1.0000     0. 
  -2  -5  -5  66931.00 3697.62  0. 1.0000     0. 
   2   5   5  68062.99 3796.71  0. 1.0000     0. 
  -2  -5   5  65826.99 3686.29  0. 1.0000     0. 
  -2   5  -5  65006.00 3575.87  0. 1.0000     0. 
   2  -5   6  68120.00 3731.59  0. 1.0000     0. 
  -2   5   6  61806.00 3442.81  0. 1.0000     0. 
   2   5  -6  63930.00 3567.38  0. 1.0000     0. 
  -2  -5  -6  64694.00 3578.71  0. 1.0000     0. 
   2   5   6  67610.00 3768.40  0. 1.0000     0. 
   2  -5  -6  70894.99 4051.52  0. 1.0000     0. 
  -2   5  -6  59909.00 3295.58  0. 1.0000     0. 
   2  -5   7  42554.00 2340.31  0. 1.0000     0. 
  -2   5   7  42950.00 2430.07  0. 1.0000     0. 
  -2  -5  -7  43884.00 2447.62  0. 1.0000     0. 
   2   5   7  43686.00 2476.50  0. 1.0000     0. 
  -2  -5   7  40713.00 2330.12  0. 1.0000     0. 
   2  -5  -7  48528.00 2817.10  0. 1.0000     0. 
   2  -5   8   2802.38  193.26  0. 1.0000     0. 
  -2   5   8   3655.15  367.50  0. 1.0000     0. 
   2   5  -8   2566.25  253.85  0. 1.0000     0. 
  -2  -5  -8   3261.60  343.71  0. 1.0000     0. 
   2   5   8   3349.37  368.06  0. 1.0000     0. 
  -2  -5   8   3080.40  292.47  0. 1.0000     0. 
   2  -5  -8   4524.34  618.63  0. 1.0000     0. 
   2  -5   9   4357.30  264.67  0. 1.0000     0. 
   2  -5   9   4575.31  317.10  0. 1.0000     0. 
  -2   5   9   4651.75  450.45  0. 1.0000     0. 
  -2  -5  -9   3941.11  469.42  0. 1.0000     0. 
   2   5   9   5436.01  455.27  0. 1.0000     0. 
  -2  -5   9   5000.00  381.09  0. 1.0000     0. 
   2  -5  -9   4532.84  639.58  0. 1.0000     0. 
   2   5  10  43063.00 2451.02  0. 1.0000     0. 
  -2  -5  10  39836.00 2242.35  0. 1.0000     0. 
   2  -5 -10  37854.00 2424.97  0. 1.0000     0. 
  -2   5  11  37797.00 2202.72  0. 1.0000     0. 
  -2  -5 -11  41846.00 2497.73  0. 1.0000     0. 
  -2  -5  11  36070.00 2130.52  0. 1.0000     0. 
  -2  -5  11  35561.00 2009.06  0. 1.0000     0. 
   2  -5 -11  37203.00 2335.50  0. 1.0000     0. 
  -2   5  12  11770.00  821.63  0. 1.0000     0. 
  -2  -5 -12  10195.00  962.34  0. 1.0000     0. 
   2   5  12  10838.00  717.16  0. 1.0000     0. 
  -2  -5  12   9668.73  627.12  0. 1.0000     0. 
  -2  -5  12  10626.00  894.11  0. 1.0000     0. 
  -2   5  13   1384.48  383.64  0. 1.0000     0. 
  -2   5  13   1252.55  189.89  0. 1.0000     0. 
  -2  -5 -13    963.76  590.60  0. 1.0000     0. 
   2   5  13   1377.97  292.47  0. 1.0000     0. 
  -2  -5  13   1255.09  214.67  0. 1.0000     0. 
  -2  -5 -14   1446.49  463.19  0. 1.0000     0. 
   2   5  14   2493.49  347.11  0. 1.0000     0. 
  -2  -5  14   2588.90  263.96  0. 1.0000     0. 
  -2  -5  14   1542.75  507.08  0. 1.0000     0. 
   2   6   0 143601.00 7952.99  0. 1.0000     0. 
  -2  -6   0 132446.00 7284.82  0. 1.0000     0. 
  -2   6   0 129388.01 7097.95  0. 1.0000     0. 
   2  -6   1 187315.9810226.00  0. 1.0000     0. 
  -2   6   1 173273.00 9481.87  0. 1.0000     0. 
   2   6  -1 187401.0010269.00  0. 1.0000     0. 
  -2  -6  -1 179133.00 9818.79  0. 1.0000     0. 
   2   6   1 181794.98 9974.51  0. 1.0000     0. 
  -2  -6   1 183692.0010076.00  0. 1.0000     0. 
   2  -6  -1 178426.02 9750.84  0. 1.0000     0. 
  -2   6  -1 179614.98 9827.28  0. 1.0000     0. 
   2  -6   2 140798.00 7695.35  0. 1.0000     0. 
  -2   6   2 133975.02 7349.94  0. 1.0000     0. 
   2   6  -2 141280.00 7760.47  0. 1.0000     0. 
  -2  -6  -2 132389.00 7279.15  0. 1.0000     0. 
   2   6   2 139524.00 7712.34  0. 1.0000     0. 
  -2  -6   2 137854.00 7587.76  0. 1.0000     0. 
   2  -6  -2 126811.99 6981.87  0. 1.0000     0. 
  -2   6  -2 142299.00 7800.11  0. 1.0000     0. 
   2  -6   3  14975.00  865.51  0. 1.0000     0. 
  -2   6   3  14216.00  868.35  0. 1.0000     0. 
   2   6  -3  13800.00  880.80  0. 1.0000     0. 
  -2  -6  -3  14340.00  882.22  0. 1.0000     0. 
   2   6   3  13553.00  880.24  0. 1.0000     0. 
  -2  -6   3  13862.00  877.12  0. 1.0000     0. 
   2  -6  -3  17109.00 1161.10  0. 1.0000     0. 
  -2   6  -3  13947.00  835.79  0. 1.0000     0. 
   2  -6   4   7046.99  440.54  0. 1.0000     0. 
  -2   6   4   7072.47  507.08  0. 1.0000     0. 
   2   6  -4   7321.62  520.95  0. 1.0000     0. 
  -2  -6  -4   6976.21  507.36  0. 1.0000     0. 
   2   6   4   7180.06  538.51  0. 1.0000     0. 
  -2  -6   4   6800.67  514.16  0. 1.0000     0. 
   2  -6  -4   6242.92  565.12  0. 1.0000     0. 
  -2   6  -4   7499.99  497.45  0. 1.0000     0. 
   2  -6   5   1479.90  168.86  0. 1.0000     0. 
  -2   6   5   1412.51  282.45  0. 1.0000     0. 
   2   6  -5   1748.87  249.91  0. 1.0000     0. 
  -2  -6  -5   2073.61  278.60  0. 1.0000     0. 
   2   6   5   1236.41  276.30  0. 1.0000     0. 
   2  -6  -5   1992.64  393.26  0. 1.0000     0. 
  -2   6  -5   1206.96  149.24  0. 1.0000     0. 
   2  -6   6  62627.00 3437.14  0. 1.0000     0. 
  -2   6   6  55096.00 3097.39  0. 1.0000     0. 
  -2  -6  -6  59655.00 3321.06  0. 1.0000     0. 
   2   6   6  62854.00 3536.24  0. 1.0000     0. 
  -2  -6   6  59117.00 3323.89  0. 1.0000     0. 
  -2   6  -6  61580.00 3391.84  0. 1.0000     0. 
  -2   6   7  83437.01 4646.09  0. 1.0000     0. 
   2   6  -7  86268.00 4798.98  0. 1.0000     0. 
  -2  -6  -7  87740.99 4844.28  0. 1.0000     0. 
  -2  -6   7  86891.00 4810.30  0. 1.0000     0. 
   2  -6  -7  87684.00 4997.16  0. 1.0000     0. 
  -2   6  -7  87740.99 4821.63  0. 1.0000     0. 
   2  -6   8  52208.00 2870.89  0. 1.0000     0. 
  -2   6   8  45187.00 2581.25  0. 1.0000     0. 
   2   6  -8  45045.00 2538.50  0. 1.0000     0. 
   2   6   8  51132.00 2907.70  0. 1.0000     0. 
  -2  -6   8  46206.00 2600.79  0. 1.0000     0. 
   2  -6  -8  48499.00 2885.05  0. 1.0000     0. 
   2  -6   9  31568.00 1744.90  0. 1.0000     0. 
  -2   6   9  29162.00 1730.18  0. 1.0000     0. 
   2   6  -9  27826.00 1597.68  0. 1.0000     0. 
  -2  -6  -9  29841.00 1899.77  0. 1.0000     0. 
   2   6   9  31342.00 1835.79  0. 1.0000     0. 
  -2  -6   9  28850.00 1669.59  0. 1.0000     0. 
   2  -6  -9  31937.00 2119.76  0. 1.0000     0. 
  -2   6  -9  30464.00 1684.03  0. 1.0000     0. 
   2  -6  10  24663.00 1372.59  0. 1.0000     0. 
   2  -6  10  28935.00 1640.71  0. 1.0000     0. 
   2   6 -10  23618.00 1361.27  0. 1.0000     0. 
  -2  -6 -10  24493.00 1565.68  0. 1.0000     0. 
   2   6  10  24980.00 1496.32  0. 1.0000     0. 
  -2  -6  10  23726.00 1384.77  0. 1.0000     0. 
   2  -6 -10  25804.00 1907.70  0. 1.0000     0. 
  -2   6  11  11798.00  852.49  0. 1.0000     0. 
   2   6 -11  11334.00  680.07  0. 1.0000     0. 
  -2  -6 -11  12724.00 1086.64  0. 1.0000     0. 
  -2  -6  11  10637.00  671.29  0. 1.0000     0. 
  -2   6  12    320.50  374.86  0. 1.0000     0. 
  -2  -6 -12    537.37  579.84  0. 1.0000     0. 
   2   6  12    278.94  282.28  0. 1.0000     0. 
  -2  -6  12    364.67  364.95  0. 1.0000     0. 
  -2  -6  12    364.95  162.88  0. 1.0000     0. 
   2  -6 -12    542.47  663.65  0. 1.0000     0. 
  -2  -6 -13    350.51  842.30  0. 1.0000     0. 
   2   6  13     19.43  290.77  0. 1.0000     0. 
  -2  -6  13   -125.59  666.48  0. 1.0000     0. 
  -2  -6  13    107.28  129.87  0. 1.0000     0. 
   2   7   0  70951.01 4023.21  0. 1.0000     0. 
  -2  -7   0  64496.00 3609.85  0. 1.0000     0. 
   2  -7   0  64043.00 3541.90  0. 1.0000     0. 
  -2   7   0  66562.99 3706.11  0. 1.0000     0. 
   2  -7   1  72650.01 4014.72  0. 1.0000     0. 
  -2   7   1  66846.00 3717.44  0. 1.0000     0. 
   2   7  -1  67780.00 3782.56  0. 1.0000     0. 
  -2  -7  -1  65487.00 3657.98  0. 1.0000     0. 
  -2  -7   1  65883.01 3691.96  0. 1.0000     0. 
   2  -7  -1  70753.00 3918.46  0. 1.0000     0. 
  -2   7  -1  68460.00 3805.21  0. 1.0000     0. 
   2  -7   2  83182.00 4578.14  0. 1.0000     0. 
  -2   7   2  80521.01 4462.06  0. 1.0000     0. 
   2   7  -2  84116.99 4660.24  0. 1.0000     0. 
   2   7   2  86579.99 4818.79  0. 1.0000     0. 
  -2  -7   2  83777.00 4660.24  0. 1.0000     0. 
   2  -7  -2  86862.99 4784.82  0. 1.0000     0. 
   2  -7   3  19725.00 1141.56  0. 1.0000     0. 
  -2   7   3  16653.00 1018.97  0. 1.0000     0. 
   2   7  -3  15493.00  964.61  0. 1.0000     0. 
  -2  -7  -3  17724.00 1082.11  0. 1.0000     0. 
   2   7   3  15563.00 1021.23  0. 1.0000     0. 
  -2  -7   3  17087.00 1062.00  0. 1.0000     0. 
   2  -7  -3  18876.00 1310.59  0. 1.0000     0. 
   2  -7   4    717.44  170.13  0. 1.0000     0. 
  -2   7   4    584.09  237.29  0. 1.0000     0. 
   2   7  -4    708.38  215.26  0. 1.0000     0. 
  -2  -7  -4    572.48  266.82  0. 1.0000     0. 
   2   7   4    823.05  293.04  0. 1.0000     0. 
  -2  -7   4    737.54  231.68  0. 1.0000     0. 
   2  -7  -4    751.41  399.21  0. 1.0000     0. 
  -2   7  -4   1039.64  210.87  0. 1.0000     0. 
   2  -7   5  10351.00  620.33  0. 1.0000     0. 
   2   7  -5  11198.00  747.73  0. 1.0000     0. 
  -2  -7  -5  10538.00  711.21  0. 1.0000     0. 
   2   7   5  10051.00  722.54  0. 1.0000     0. 
  -2  -7   5  10059.00  693.37  0. 1.0000     0. 
   2  -7  -5  10934.00  894.39  0. 1.0000     0. 
  -2   7  -5  10402.00  625.14  0. 1.0000     0. 
   2  -7   6  55691.00 3071.91  0. 1.0000     0. 
  -2   7   6  50991.00 2896.37  0. 1.0000     0. 
   2   7  -6  59117.00 3335.22  0. 1.0000     0. 
  -2  -7  -6  54870.00 3086.07  0. 1.0000     0. 
   2   7   6  56115.00 3190.82  0. 1.0000     0. 
  -2  -7   6  55209.00 3117.21  0. 1.0000     0. 
  -2   7  -6  54615.00 3023.78  0. 1.0000     0. 
   2  -7   7  66761.00 3669.31  0. 1.0000     0. 
  -2   7   7  58352.00 3298.41  0. 1.0000     0. 
   2   7  -7  66987.01 3737.26  0. 1.0000     0. 
  -2  -7  -7  61891.00 3462.62  0. 1.0000     0. 
  -2  -7   7  64015.00 3590.03  0. 1.0000     0. 
   2  -7  -7  63930.00 3808.04  0. 1.0000     0. 
   2  -7   8  20827.00 1172.71  0. 1.0000     0. 
  -2   7   8  18177.00 1153.17  0. 1.0000     0. 
   2   7  -8  19284.00 1149.21  0. 1.0000     0. 
   2   7   8  20425.00 1295.58  0. 1.0000     0. 
  -2  -7   8  19488.00 1189.41  0. 1.0000     0. 
   2  -7  -8  20294.00 1439.41  0. 1.0000     0. 
  -2   7  -8  18383.00 1043.60  0. 1.0000     0. 
   2  -7   9   5934.31  372.88  0. 1.0000     0. 
  -2   7   9   5832.38  556.62  0. 1.0000     0. 
   2   7  -9   5532.27  402.32  0. 1.0000     0. 
  -2  -7  -9   5529.44  785.67  0. 1.0000     0. 
   2   7   9   6143.82  566.25  0. 1.0000     0. 
   2  -7  -9   5985.27  904.59  0. 1.0000     0. 
  -2   7  -9   5223.66  316.25  0. 1.0000     0. 
   2  -7  10  11022.00  670.72  0. 1.0000     0. 
  -2   7  10  10306.00  795.87  0. 1.0000     0. 
   2   7 -10   9541.33  601.64  0. 1.0000     0. 
  -2  -7 -10  10399.00  937.43  0. 1.0000     0. 
   2   7  10  11031.00  804.08  0. 1.0000     0. 
  -2  -7  10   9552.65  637.60  0. 1.0000     0. 
   2  -7 -10  10750.00 1321.35  0. 1.0000     0. 
  -2   7 -10  10696.00  601.08  0. 1.0000     0. 
  -2   7  11   6107.02  612.40  0. 1.0000     0. 
   2   7 -11   5141.56  334.37  0. 1.0000     0. 
  -2  -7 -11   5535.10  738.11  0. 1.0000     0. 
   2   7  11   6268.40  582.11  0. 1.0000     0. 
  -2  -7  11   5523.78  419.59  0. 1.0000     0. 
  -2  -7 -12   1747.45  783.97  0. 1.0000     0. 
   2   7  12   1189.41  362.12  0. 1.0000     0. 
  -2  -7  12   1096.26  204.64  0. 1.0000     0. 
   2   8   0   5801.24  582.67  0. 1.0000     0. 
  -2  -8   0   5928.65  499.72  0. 1.0000     0. 
  -2   8   0   5832.38  474.52  0. 1.0000     0. 
   2  -8   1   3592.86  342.30  0. 1.0000     0. 
  -2   8   1   3434.31  373.44  0. 1.0000     0. 
   2   8  -1   3861.83  406.85  0. 1.0000     0. 
  -2  -8  -1   3318.23  378.54  0. 1.0000     0. 
   2   8   1   3425.82  435.73  0. 1.0000     0. 
  -2  -8   1   3612.68  386.18  0. 1.0000     0. 
   2  -8  -1   3932.61  387.88  0. 1.0000     0. 
   2  -8   2  47112.00 2628.82  0. 1.0000     0. 
  -2   8   2  47424.00 2695.64  0. 1.0000     0. 
   2   8  -2  48669.00 2751.70  0. 1.0000     0. 
  -2  -8  -2  48783.00 2773.21  0. 1.0000     0. 
   2   8   2  47905.00 2739.24  0. 1.0000     0. 
  -2  -8   2  48783.00 2782.56  0. 1.0000     0. 
   2  -8  -2  48160.00 2691.11  0. 1.0000     0. 
  -2   8  -2  46971.00 2648.64  0. 1.0000     0. 
   2  -8   3  71886.01 3966.59  0. 1.0000     0. 
  -2   8   3  70385.01 3949.60  0. 1.0000     0. 
   2   8  -3  69026.00 3875.99  0. 1.0000     0. 
  -2  -8  -3  71461.00 4017.55  0. 1.0000     0. 
   2   8   3  71857.00 4096.82  0. 1.0000     0. 
  -2  -8   3  69224.01 3892.97  0. 1.0000     0. 
   2  -8  -3  70781.01 4110.98  0. 1.0000     0. 
  -2   8  -3  69196.00 3836.35  0. 1.0000     0. 
   2  -8   4  52944.00 2936.01  0. 1.0000     0. 
  -2   8   4  51189.00 2913.36  0. 1.0000     0. 
   2   8  -4  47905.00 2742.07  0. 1.0000     0. 
  -2  -8  -4  52860.00 3003.96  0. 1.0000     0. 
   2   8   4  50368.00 2904.87  0. 1.0000     0. 
  -2  -8   4  53596.00 3052.09  0. 1.0000     0. 
   2  -8  -4  50396.00 3023.78  0. 1.0000     0. 
  -2   8  -4  51302.00 2890.71  0. 1.0000     0. 
   2  -8   5  42412.00 2364.10  0. 1.0000     0. 
  -2   8   5  40317.00 2337.20  0. 1.0000     0. 
   2   8  -5  39581.00 2284.26  0. 1.0000     0. 
  -2  -8  -5  39921.00 2300.68  0. 1.0000     0. 
   2   8   5  40091.00 2363.25  0. 1.0000     0. 
  -2  -8   5  43686.00 2505.94  0. 1.0000     0. 
   2  -8  -5  41280.00 2536.52  0. 1.0000     0. 
  -2   8  -5  38845.00 2169.31  0. 1.0000     0. 
   2  -8   6  45612.00 2536.24  0. 1.0000     0. 
  -2   8   6  37373.00 2194.79  0. 1.0000     0. 
   2   8  -6  40487.00 2323.33  0. 1.0000     0. 
  -2  -8  -6  42129.00 2418.17  0. 1.0000     0. 
   2   8   6  39921.00 2356.74  0. 1.0000     0. 
  -2  -8   6  41251.00 2368.34  0. 1.0000     0. 
   2  -8  -6  41450.00 2558.32  0. 1.0000     0. 
  -2   8  -6  37882.00 2124.29  0. 1.0000     0. 
   2  -8   7  11104.00  670.72  0. 1.0000     0. 
  -2   8   7   9331.81  716.59  0. 1.0000     0. 
   2   8  -7   9807.46  677.52  0. 1.0000     0. 
  -2  -8  -7   9784.81  724.23  0. 1.0000     0. 
  -2  -8   7  10280.00  705.27  0. 1.0000     0. 
  -2   8  -7   9433.74  588.62  0. 1.0000     0. 
   2  -8   8    263.79  157.39  0. 1.0000     0. 
  -2   8   8    253.94  325.59  0. 1.0000     0. 
   2   8  -8    486.41  183.32  0. 1.0000     0. 
   2   8   8    248.22  369.48  0. 1.0000     0. 
   2  -8  -8    486.41  773.50  0. 1.0000     0. 
  -2   8  -8    263.28  100.93  0. 1.0000     0. 
  -2   8   9    117.41  347.11  0. 1.0000     0. 
  -2  -8  -9    136.27  591.45  0. 1.0000     0. 
   2   8   9    238.56  326.44  0. 1.0000     0. 
  -2  -8   9    100.28  186.50  0. 1.0000     0. 
   2  -8  -9    110.79  716.31  0. 1.0000     0. 
  -2   8  -9    279.50   69.51  0. 1.0000     0. 
   2  -8  10   3156.85  247.57  0. 1.0000     0. 
  -2   8  10   4699.88  587.48  0. 1.0000     0. 
  -2  -8 -10   3720.27  752.55  0. 1.0000     0. 
   2   8  10   4187.42  503.11  0. 1.0000     0. 
  -2  -8  10   4739.52  389.01  0. 1.0000     0. 
   2   8 -11  12978.00  772.37  0. 1.0000     0. 
  -2  -8 -11  12800.00 1221.97  0. 1.0000     0. 
   2   8  11  13222.00  934.31  0. 1.0000     0. 
  -2  -8  11  11336.00  733.01  0. 1.0000     0. 
   2   8 -12   9600.78  604.19  0. 1.0000     0. 
   2   9   0    236.27  361.27  0. 1.0000     0. 
  -2  -9   0    305.21  273.67  0. 1.0000     0. 
   2  -9   0    469.99  272.59  0. 1.0000     0. 
   2  -9   1   4167.61  393.26  0. 1.0000     0. 
  -2   9   1   4269.53  459.23  0. 1.0000     0. 
   2   9  -1   4068.51  417.61  0. 1.0000     0. 
  -2  -9  -1   4278.03  453.28  0. 1.0000     0. 
   2   9   1   4297.84  552.09  0. 1.0000     0. 
  -2  -9   1   4164.77  430.63  0. 1.0000     0. 
  -2   9  -1   3904.30  384.20  0. 1.0000     0. 
   2  -9   2  35391.00 2005.94  0. 1.0000     0. 
  -2   9   2  34966.00 2057.19  0. 1.0000     0. 
   2   9  -2  35447.00 2052.94  0. 1.0000     0. 
  -2  -9  -2  36212.00 2122.87  0. 1.0000     0. 
  -2  -9   2  32871.00 1929.22  0. 1.0000     0. 
   2  -9  -2  35164.00 2015.00  0. 1.0000     0. 
  -2   9  -2  34202.00 1975.37  0. 1.0000     0. 
   2  -9   3  44337.00 2486.69  0. 1.0000     0. 
  -2   9   3  43092.00 2498.02  0. 1.0000     0. 
   2   9  -3  42695.00 2465.74  0. 1.0000     0. 
   2   9   3  40345.00 2358.43  0. 1.0000     0. 
   2  -9  -3  41082.00 2588.90  0. 1.0000     0. 
  -2   9  -3  41421.00 2335.50  0. 1.0000     0. 
   2  -9   4  21600.00 1257.36  0. 1.0000     0. 
  -2   9   4  21600.00 1366.65  0. 1.0000     0. 
  -2  -9  -4  20991.00 1331.54  0. 1.0000     0. 
   2   9   4  22565.00 1488.67  0. 1.0000     0. 
  -2  -9   4  22418.00 1373.16  0. 1.0000     0. 
   2  -9  -4  19997.00 1493.20  0. 1.0000     0. 
  -2   9  -4  22058.00 1312.00  0. 1.0000     0. 
   2  -9   5  17115.00 1014.16  0. 1.0000     0. 
  -2   9   5  16198.00 1095.70  0. 1.0000     0. 
   2   9  -5  16118.00 1012.74  0. 1.0000     0. 
  -2  -9  -5  16829.00 1127.69  0. 1.0000     0. 
   2   9   5  15747.00 1095.70  0. 1.0000     0. 
  -2  -9   5  16628.00 1056.62  0. 1.0000     0. 
   2  -9  -5  15747.00 1250.57  0. 1.0000     0. 
  -2   9  -5  15377.00  903.45  0. 1.0000     0. 
   2  -9   6  14428.00  856.74  0. 1.0000     0. 
   2   9  -6  12126.00  786.52  0. 1.0000     0. 
  -2  -9  -6  12387.00  888.45  0. 1.0000     0. 
   2   9   6  12676.00  958.10  0. 1.0000     0. 
  -2  -9   6  13160.00  871.46  0. 1.0000     0. 
   2  -9  -6  13899.00 1260.76  0. 1.0000     0. 
  -2   9  -6  12276.00  742.92  0. 1.0000     0. 
   2  -9   7   4957.53  366.08  0. 1.0000     0. 
  -2   9   7   3907.13  538.22  0. 1.0000     0. 
   2   9  -7   3595.69  334.94  0. 1.0000     0. 
  -2  -9  -7   4218.57  532.56  0. 1.0000     0. 
   2   9   7   3190.82  523.78  0. 1.0000     0. 
  -2  -9   7   4496.03  426.95  0. 1.0000     0. 
  -2   9  -7   3748.58  278.28  0. 1.0000     0. 
  -2   9   8    535.67  457.81  0. 1.0000     0. 
   2   9   8    302.66  366.93  0. 1.0000     0. 
  -2  -9   8    325.59  242.13  0. 1.0000     0. 
   2  -9  -8    809.46  927.24  0. 1.0000     0. 
  -2   9  -8    373.16  110.79  0. 1.0000     0. 
   2  -9   9    731.03  198.36  0. 1.0000     0. 
   2   9  -9   1288.22  191.05  0. 1.0000     0. 
  -2  -9  -9    722.25  767.27  0. 1.0000     0. 
   2   9   9    637.03  419.59  0. 1.0000     0. 
  -2  -9   9    871.74  240.71  0. 1.0000     0. 
  -2   9  -9   1242.64  121.01  0. 1.0000     0. 
   2   9 -11  14986.00  911.66  0. 1.0000     0. 
   2  10   0  18089.00 1155.43  0. 1.0000     0. 
  -2 -10   0  18627.00 1202.15  0. 1.0000     0. 
   2 -10   0  20682.00 1267.27  0. 1.0000     0. 
  -2  10   0  19439.00 1221.97  0. 1.0000     0. 
   2 -10   1  24929.00 1466.02  0. 1.0000     0. 
   2  10  -1  24807.00 1503.96  0. 1.0000     0. 
  -2 -10  -1  25855.00 1592.86  0. 1.0000     0. 
   2  10   1  26101.00 1709.51  0. 1.0000     0. 
  -2 -10   1  24488.00 1499.15  0. 1.0000     0. 
   2 -10  -1  24581.00 1471.40  0. 1.0000     0. 
  -2  10  -1  24230.00 1466.31  0. 1.0000     0. 
   2 -10   2  19850.00 1188.56  0. 1.0000     0. 
  -2  10   2  20507.00 1319.08  0. 1.0000     0. 
   2  10  -2  19974.00 1239.52  0. 1.0000     0. 
  -2 -10  -2  21755.00 1394.96  0. 1.0000     0. 
   2  10   2  20425.00 1384.20  0. 1.0000     0. 
  -2  10  -2  20702.00 1245.19  0. 1.0000     0. 
   2 -10   3   3185.16  343.71  0. 1.0000     0. 
  -2  10   3   4159.11  520.39  0. 1.0000     0. 
  -2 -10  -3   4603.62  591.45  0. 1.0000     0. 
   2  10   3   3720.27  504.25  0. 1.0000     0. 
  -2 -10   3   4054.36  450.74  0. 1.0000     0. 
   2 -10  -3   3080.40  773.50  0. 1.0000     0. 
  -2  10  -3   3859.00  365.52  0. 1.0000     0. 
   2 -10   4    286.24  233.07  0. 1.0000     0. 
  -2  10   4    206.43  387.03  0. 1.0000     0. 
   2  10  -4    219.08  257.56  0. 1.0000     0. 
  -2 -10  -4    397.51  400.34  0. 1.0000     0. 
   2  10   4    337.20  404.59  0. 1.0000     0. 
  -2 -10   4    238.65  298.13  0. 1.0000     0. 
   2 -10  -4    339.47  674.41  0. 1.0000     0. 
   2 -10   5    361.55  233.55  0. 1.0000     0. 
  -2  10   5    707.53  403.17  0. 1.0000     0. 
   2  10  -5    445.36  221.94  0. 1.0000     0. 
  -2 -10  -5    378.54  466.02  0. 1.0000     0. 
   2  10   5     26.59  432.33  0. 1.0000     0. 
  -2 -10   5    232.70  273.98  0. 1.0000     0. 
   2 -10  -5    410.82  679.78  0. 1.0000     0. 
  -2  10  -5    217.98  151.13  0. 1.0000     0. 
   2 -10   6   7412.22  531.71  0. 1.0000     0. 
  -2  10   6   6342.01  694.79  0. 1.0000     0. 
   2  10  -6   6528.87  497.73  0. 1.0000     0. 
  -2 -10  -6   5792.75  650.91  0. 1.0000     0. 
   2  10   6   7256.50  785.96  0. 1.0000     0. 
  -2 -10   6   6823.32  553.79  0. 1.0000     0. 
   2 -10  -6   6163.64 1051.24  0. 1.0000     0. 
  -2  10  -6   6673.27  449.60  0. 1.0000     0. 
   2 -10   7  11226.00  723.10  0. 1.0000     0. 
  -2  10   7   9660.24  953.00  0. 1.0000     0. 
   2  10   7  10648.00  945.36  0. 1.0000     0. 
  -2 -10   7  11059.00  759.91  0. 1.0000     0. 
  -2  10  -7  10476.00  631.65  0. 1.0000     0. 
   2 -10   8   7870.89  523.22  0. 1.0000     0. 
   2  10  -8   6953.56  484.71  0. 1.0000     0. 
  -2 -10   8   7148.92  535.67  0. 1.0000     0. 
  -2  10  -8   7330.12  459.80  0. 1.0000     0. 
  -2  10  -9   6223.10  381.37  0. 1.0000     0. 
   2  11   0  12826.00  918.46  0. 1.0000     0. 
  -2 -11   0  11444.00  886.75  0. 1.0000     0. 
   2 -11   0  11580.00  805.21  0. 1.0000     0. 
  -2  11   0  11328.00  821.35  0. 1.0000     0. 
   2 -11   1  12307.00  845.13  0. 1.0000     0. 
  -2  11   1  12242.00  889.58  0. 1.0000     0. 
   2  11  -1  12007.00  843.71  0. 1.0000     0. 
  -2 -11  -1  12285.00  954.70  0. 1.0000     0. 
   2  11   1  13250.00 1008.78  0. 1.0000     0. 
   2 -11  -1  12528.00  844.00  0. 1.0000     0. 
  -2  11  -1  12865.00  908.83  0. 1.0000     0. 
  -2 -11  -2   9371.45  831.26  0. 1.0000     0. 
   2  11   2   7811.43  835.22  0. 1.0000     0. 
  -2 -11   2   7601.92  665.91  0. 1.0000     0. 
   2 -11  -2   7375.42  875.42  0. 1.0000     0. 
  -2  11  -2   7794.44  577.01  0. 1.0000     0. 
   2 -11   3   1434.03  293.32  0. 1.0000     0. 
  -2  11   3   1085.22  425.25  0. 1.0000     0. 
   2  11  -3   1181.77  304.08  0. 1.0000     0. 
  -2 -11   3   1322.76  339.18  0. 1.0000     0. 
   2 -11   4     45.55  247.51  0. 1.0000     0. 
  -2  11   4    254.59  423.27  0. 1.0000     0. 
   2  11  -4    248.10  233.92  0. 1.0000     0. 
   2  11   4     68.23  430.07  0. 1.0000     0. 
  -2 -11   4    122.85  261.95  0. 1.0000     0. 
   2 -11  -4    102.10  754.81  0. 1.0000     0. 
  -2  11  -4    164.78  164.98  0. 1.0000     0. 
   2 -11   5    496.32  251.05  0. 1.0000     0. 
   2  11  -5    990.37  254.16  0. 1.0000     0. 
  -2 -11   5    549.83  308.61  0. 1.0000     0. 
  -2  11  -5    694.51  159.26  0. 1.0000     0. 
   2 -11   6   5331.25  442.24  0. 1.0000     0. 
  -2 -11   6   5973.95  509.91  0. 1.0000     0. 
  -2  11  -6   7160.24  478.20  0. 1.0000     0. 
   2 -11   7   8751.41  596.26  0. 1.0000     0. 
   2  11  -7  10147.00  687.43  0. 1.0000     0. 
  -2 -11   7   8179.49  619.48  0. 1.0000     0. 
  -2  11  -7   9538.50  582.67  0. 1.0000     0. 
   2  11  -8   5501.13  454.42  0. 1.0000     0. 
  -2  11  -8   5022.65  350.51  0. 1.0000     0. 
   2 -12   0    149.52  361.27  0. 1.0000     0. 
  -2  12   0   -125.57  335.22  0. 1.0000     0. 
   2 -12   1    857.59  385.90  0. 1.0000     0. 
  -2  12   1    664.78  411.38  0. 1.0000     0. 
   2 -12  -1    582.67  649.77  0. 1.0000     0. 
  -2  12  -1    768.12  280.63  0. 1.0000     0. 
   2 -12   2   3994.90  468.86  0. 1.0000     0. 
  -2  12  -2   3816.53  446.21  0. 1.0000     0. 
   2 -12   3   4903.73  498.87  0. 1.0000     0. 
  -2  12  -3   5283.12  433.75  0. 1.0000     0. 
  -2  12  -4   4119.48  336.64  0. 1.0000     0. 
   2 -12   5   4006.22  423.56  0. 1.0000     0. 
  -2  12  -6   5033.97  381.94  0. 1.0000     0. 
   3   0   0    113.42   90.94  0. 1.0000     0. 
  -3   0   0     25.23   92.84  0. 1.0000     0. 
   3   0   1  13627.00  786.81  0. 1.0000     0. 
  -3   0   1  14740.00  864.95  0. 1.0000     0. 
   3   0  -1  13601.00  805.78  0. 1.0000     0. 
  -3   0  -1  14626.00  842.02  0. 1.0000     0. 
   3   0   2 214693.9811713.00  0. 1.0000     0. 
   3   0  -2 220327.9812038.00  0. 1.0000     0. 
  -3   0  -2 225538.0012296.00  0. 1.0000     0. 
   3   0   3 152208.00 8309.73  0. 1.0000     0. 
  -3   0   3 168176.00 9210.07  0. 1.0000     0. 
   3   0  -3 157531.02 8621.17  0. 1.0000     0. 
  -3   0  -3 178596.00 9750.84  0. 1.0000     0. 
  -3   0   4  28539.00 1624.01  0. 1.0000     0. 
  -3   0  -4  27545.00 1515.29  0. 1.0000     0. 
   3   0   5 192525.0010532.00  0. 1.0000     0. 
  -3   0   5 202803.0011116.00  0. 1.0000     0. 
  -3   0   5 169393.98 9295.01  0. 1.0000     0. 
   3   0   6 158352.00 8680.63  0. 1.0000     0. 
  -3   0   6 171036.02 9450.73  0. 1.0000     0. 
  -3   0   6 148952.00 8193.65  0. 1.0000     0. 
  -3   0  -6 170299.98 9326.15  0. 1.0000     0. 
  -3   0   7   3717.44  414.21  0. 1.0000     0. 
  -3   0  -7   3329.55  214.61  0. 1.0000     0. 
   3   0   8   9722.53  552.66  0. 1.0000     0. 
  -3   0   8  10153.00  662.51  0. 1.0000     0. 
   3   0   9   1386.18  113.76  0. 1.0000     0. 
  -3   0   9   1071.35  334.37  0. 1.0000     0. 
   3   0  10   1667.04  123.73  0. 1.0000     0. 
   3   0  10   1834.09  128.31  0. 1.0000     0. 
  -3   0  10   2118.63  245.92  0. 1.0000     0. 
   3   0  11  12619.00  713.19  0. 1.0000     0. 
   3   0  11  11025.00  622.59  0. 1.0000     0. 
  -3   0  11  12503.00  787.94  0. 1.0000     0. 
  -3   0  11  11464.00  834.09  0. 1.0000     0. 
  -3   0  12   6217.43  630.24  0. 1.0000     0. 
  -3   0  12   5373.72  413.36  0. 1.0000     0. 
  -3   0  13   6002.26  432.33  0. 1.0000     0. 
   3   1   0    219.17   97.93  0. 1.0000     0. 
  -3  -1   0     66.65  110.16  0. 1.0000     0. 
  -3   1   0    116.76   83.92  0. 1.0000     0. 
  -3   1   0    144.20  106.43  0. 1.0000     0. 
  -3   1   1  52208.00 2904.87  0. 1.0000     0. 
  -3   1   1  52038.00 2887.88  0. 1.0000     0. 
   3   1  -1  47933.00 2672.99  0. 1.0000     0. 
  -3  -1  -1  50396.00 2777.18  0. 1.0000     0. 
   3   1   1  53624.00 2972.82  0. 1.0000     0. 
  -3  -1   1  51642.00 2879.39  0. 1.0000     0. 
  -3   1  -1  49547.00 2731.31  0. 1.0000     0. 
  -3   1  -1  52322.00 2873.72  0. 1.0000     0. 
  -3   1   2   3377.69  269.39  0. 1.0000     0. 
  -3   1   2   3994.90  331.82  0. 1.0000     0. 
   3   1  -2   2799.54  253.54  0. 1.0000     0. 
  -3  -1  -2   3173.84  240.15  0. 1.0000     0. 
   3   1   2   3224.80  227.89  0. 1.0000     0. 
  -3   1  -2   2992.64  205.32  0. 1.0000     0. 
  -3   1  -2   3125.70  205.89  0. 1.0000     0. 
  -3  -1  -3  78964.00 4328.99  0. 1.0000     0. 
   3   1   3  82531.01 4524.34  0. 1.0000     0. 
  -3  -1   3  84512.99 4691.39  0. 1.0000     0. 
  -3   1  -3  77037.99 4218.57  0. 1.0000     0. 
  -3   1  -3  70894.99 3890.14  0. 1.0000     0. 
  -3   1   4    141.45  111.21  0. 1.0000     0. 
  -3   1   4    747.45  215.91  0. 1.0000     0. 
   3   1  -4    123.67  108.69  0. 1.0000     0. 
   3   1   4    273.30   78.14  0. 1.0000     0. 
  -3  -1   4    333.52  148.50  0. 1.0000     0. 
  -3   1   5  38024.00 2163.93  0. 1.0000     0. 
  -3   1   5  35306.00 2065.12  0. 1.0000     0. 
   3   1  -5  36523.00 2078.14  0. 1.0000     0. 
  -3  -1  -5  33097.00 1821.63  0. 1.0000     0. 
   3   1   5  34966.00 1941.11  0. 1.0000     0. 
  -3  -1   5  34315.00 1954.70  0. 1.0000     0. 
  -3   1   6   7383.91  540.49  0. 1.0000     0. 
  -3  -1  -6   7035.67  406.85  0. 1.0000     0. 
   3   1   6   6090.03  370.89  0. 1.0000     0. 
  -3  -1   6   5889.01  442.81  0. 1.0000     0. 
  -3   1   7   4153.45  409.97  0. 1.0000     0. 
  -3  -1  -7   3507.92  252.46  0. 1.0000     0. 
   3   1   7   4368.63  287.65  0. 1.0000     0. 
  -3  -1   7   3635.33  359.57  0. 1.0000     0. 
  -3   1   8  15413.00  967.16  0. 1.0000     0. 
  -3   1   8  14754.00  994.34  0. 1.0000     0. 
  -3  -1  -8  14711.00  851.08  0. 1.0000     0. 
   3   1   8  14049.00  807.19  0. 1.0000     0. 
  -3  -1   8  13335.00  837.20  0. 1.0000     0. 
  -3  -1   8  14312.00  978.77  0. 1.0000     0. 
  -3   1   9   4742.35  460.64  0. 1.0000     0. 
  -3  -1  -9   4773.49  356.17  0. 1.0000     0. 
   3   1   9   5297.28  339.18  0. 1.0000     0. 
  -3  -1   9   5758.77  433.75  0. 1.0000     0. 
  -3   1  10   4275.19  361.83  0. 1.0000     0. 
  -3   1  10   6016.42  586.64  0. 1.0000     0. 
   3   1  10   4003.39  258.35  0. 1.0000     0. 
   3   1  10   4920.72  320.50  0. 1.0000     0. 
  -3  -1  10   4580.97  395.53  0. 1.0000     0. 
  -3  -1  10   5416.19  556.34  0. 1.0000     0. 
   3   1  11   1344.00  140.94  0. 1.0000     0. 
  -3  -1  11    665.91  353.06  0. 1.0000     0. 
  -3   1  12   1782.27  226.70  0. 1.0000     0. 
  -3   1  12   1617.50  460.93  0. 1.0000     0. 
   3   1  12   1702.15  130.44  0. 1.0000     0. 
   3   1  12   1752.83  159.57  0. 1.0000     0. 
  -3  -1  12   2052.94  247.68  0. 1.0000     0. 
  -3  -1  12   1804.08  416.76  0. 1.0000     0. 
  -3   1  13     80.69  146.43  0. 1.0000     0. 
  -3   1  13   -156.68  245.67  0. 1.0000     0. 
   3   1  13     70.84   79.61  0. 1.0000     0. 
   3   1  13    157.81   61.58  0. 1.0000     0. 
  -3  -1  13     31.96  408.27  0. 1.0000     0. 
  -3  -1  13    191.73  159.43  0. 1.0000     0. 
  -3   1  14   4045.86  441.96  0. 1.0000     0. 
  -3   1  14   3853.34  325.59  0. 1.0000     0. 
   3   1  14   4272.36  262.32  0. 1.0000     0. 
  -3  -1  14   3510.76  600.23  0. 1.0000     0. 
  -3  -1  14   4399.77  362.97  0. 1.0000     0. 
   3   2   0    402.89  140.01  0. 1.0000     0. 
  -3  -2   0    380.24  111.01  0. 1.0000     0. 
   3  -2   0    181.94   94.14  0. 1.0000     0. 
  -3   2   0    227.41  103.26  0. 1.0000     0. 
  -3   2   1 256313.0213992.00  0. 1.0000     0. 
   3   2  -1 275000.0015025.00  0. 1.0000     0. 
  -3  -2  -1 267101.0314584.00  0. 1.0000     0. 
   3   2   1 272565.0014870.00  0. 1.0000     0. 
  -3  -2   1 278595.0015215.00  0. 1.0000     0. 
   3  -2  -1 242044.0013202.00  0. 1.0000     0. 
  -3   2  -1 271008.0014773.00  0. 1.0000     0. 
  -3   2   2 179020.00 9801.80  0. 1.0000     0. 
   3   2  -2 181908.00 9957.52  0. 1.0000     0. 
  -3  -2  -2 188420.0010292.00  0. 1.0000     0. 
   3   2   2 183692.0010034.00  0. 1.0000     0. 
  -3  -2   2 173273.00 9501.69  0. 1.0000     0. 
   3  -2  -2 170215.00 9306.33  0. 1.0000     0. 
  -3   2  -2 181143.98 9886.74  0. 1.0000     0. 
  -3   2  -2 163505.00 8912.79  0. 1.0000     0. 
  -3   2   3  23669.00 1385.90  0. 1.0000     0. 
  -3  -2  -3  22271.00 1257.36  0. 1.0000     0. 
   3  -2  -3  23440.00 1343.43  0. 1.0000     0. 
  -3   2  -3  23573.00 1296.43  0. 1.0000     0. 
  -3   2   4   9011.88  603.62  0. 1.0000     0. 
  -3  -2  -4   9697.05  569.08  0. 1.0000     0. 
   3   2   4  11495.00  695.07  0. 1.0000     0. 
  -3  -2   4  11585.00  744.05  0. 1.0000     0. 
  -3   2   5   6568.51  456.11  0. 1.0000     0. 
   3   2  -5   5203.85  399.21  0. 1.0000     0. 
  -3  -2   5   4963.19  390.15  0. 1.0000     0. 
  -3   2   6  25960.00 1508.21  0. 1.0000     0. 
   3   2  -6  23783.00 1374.29  0. 1.0000     0. 
   3   2   6  21571.00 1229.61  0. 1.0000     0. 
  -3  -2   6  23732.00 1423.27  0. 1.0000     0. 
  -3   2   7  86948.01 4864.09  0. 1.0000     0. 
  -3   2   7 100933.99 5594.56  0. 1.0000     0. 
   3   2  -7  91450.00 5065.11  0. 1.0000     0. 
  -3  -2  -7  83747.99 4578.14  0. 1.0000     0. 
   3   2   7  92837.00 5096.26  0. 1.0000     0. 
  -3  -2   7  94592.01 5271.80  0. 1.0000     0. 
  -3   2   8   8524.91  646.38  0. 1.0000     0. 
  -3  -2  -8   8850.50  571.91  0. 1.0000     0. 
  -3   2   9  22888.00 1470.27  0. 1.0000     0. 
  -3  -2  -9  24632.00 1423.55  0. 1.0000     0. 
   3   2   9  28230.00 1587.48  0. 1.0000     0. 
  -3  -2   9  31031.00 1820.21  0. 1.0000     0. 
  -3   2  10  42440.00 2430.91  0. 1.0000     0. 
  -3  -2 -10  46602.00 2639.58  0. 1.0000     0. 
   3   2  10  49830.00 2763.59  0. 1.0000     0. 
  -3  -2  10  45413.00 2583.24  0. 1.0000     0. 
  -3  -2  10  46121.00 2745.75  0. 1.0000     0. 
   3   2  11   1706.96  196.12  0. 1.0000     0. 
  -3  -2  11   2148.07  442.81  0. 1.0000     0. 
  -3   2  13    100.40  242.44  0. 1.0000     0. 
   3   2  13     46.97   64.92  0. 1.0000     0. 
   3   2  13    -12.95  123.87  0. 1.0000     0. 
  -3  -2  13    -24.78  132.36  0. 1.0000     0. 
  -3  -2  13    -18.09  419.03  0. 1.0000     0. 
  -3   2  14     -8.54  129.45  0. 1.0000     0. 
  -3   2  14     -3.54  291.34  0. 1.0000     0. 
   3   2  14     26.93  112.34  0. 1.0000     0. 
  -3  -2  14     44.20  138.42  0. 1.0000     0. 
  -3  -2  14    206.03  483.86  0. 1.0000     0. 
   3   3   0     44.76  145.27  0. 1.0000     0. 
  -3  -3   0     -0.96  143.18  0. 1.0000     0. 
   3  -3   0    253.09  145.16  0. 1.0000     0. 
  -3   3   0     50.79   89.75  0. 1.0000     0. 
   3  -3   1  68573.00 3791.05  0. 1.0000     0. 
  -3   3   1  69819.00 3825.02  0. 1.0000     0. 
   3   3  -1  72735.00 4031.71  0. 1.0000     0. 
  -3  -3  -1  68488.00 3793.88  0. 1.0000     0. 
   3   3   1  73272.99 4045.86  0. 1.0000     0. 
   3  -3  -1  68969.01 3836.35  0. 1.0000     0. 
  -3   3  -1  64638.00 3536.24  0. 1.0000     0. 
   3  -3   2  26826.00 1511.61  0. 1.0000     0. 
  -3   3   2  29558.00 1713.76  0. 1.0000     0. 
  -3  -3  -2  28253.00 1602.49  0. 1.0000     0. 
   3   3   2  28426.00 1596.54  0. 1.0000     0. 
  -3  -3   2  27288.00 1552.94  0. 1.0000     0. 
   3  -3  -2  28256.00 1643.26  0. 1.0000     0. 
  -3   3  -2  28369.00 1564.55  0. 1.0000     0. 
   3  -3   3  29445.00 1640.15  0. 1.0000     0. 
  -3   3   3  32814.00 1934.88  0. 1.0000     0. 
   3   3  -3  32758.00 1898.64  0. 1.0000     0. 
  -3  -3  -3  31993.00 1792.47  0. 1.0000     0. 
   3   3   3  32191.00 1831.82  0. 1.0000     0. 
  -3  -3   3  29587.00 1699.89  0. 1.0000     0. 
   3  -3  -3  31767.00 1851.92  0. 1.0000     0. 
  -3   3  -3  31314.00 1722.25  0. 1.0000     0. 
   3   3  -4   2593.43  254.13  0. 1.0000     0. 
  -3  -3  -4   3403.17  248.87  0. 1.0000     0. 
   3   3   4   2797.56  235.56  0. 1.0000     0. 
  -3  -3   4   2556.62  276.33  0. 1.0000     0. 
  -3   3  -4   2801.24  176.19  0. 1.0000     0. 
  -3   3   5   5993.77  563.42  0. 1.0000     0. 
  -3  -3  -5   5342.58  348.24  0. 1.0000     0. 
  -3  -3   5   5033.97  400.34  0. 1.0000     0. 
   3  -3  -5   4714.04  458.95  0. 1.0000     0. 
  -3   3   6    348.24  283.98  0. 1.0000     0. 
   3   3  -6    188.79  127.15  0. 1.0000     0. 
   3   3   6     77.12  152.80  0. 1.0000     0. 
  -3  -3   6    293.88  204.42  0. 1.0000     0. 
   3  -3  -6    324.46  254.62  0. 1.0000     0. 
  -3   3   7   5339.75  474.80  0. 1.0000     0. 
  -3  -3  -7   5846.54  377.97  0. 1.0000     0. 
   3   3   7   6775.19  460.93  0. 1.0000     0. 
  -3  -3   7   7887.87  560.59  0. 1.0000     0. 
  -3   3   8   4102.49  348.24  0. 1.0000     0. 
   3   3  -8   3799.54  318.23  0. 1.0000     0. 
   3   3   8   5311.43  384.48  0. 1.0000     0. 
  -3  -3   8   5033.97  394.39  0. 1.0000     0. 
  -3   3   9  10779.00  692.81  0. 1.0000     0. 
  -3  -3  -9  11410.00  740.66  0. 1.0000     0. 
   3   3   9  13689.00  831.54  0. 1.0000     0. 
  -3  -3   9  13454.00  844.28  0. 1.0000     0. 
  -3   3  10   8255.94  571.06  0. 1.0000     0. 
  -3   3  10   8309.73  588.34  0. 1.0000     0. 
  -3  -3 -10   8825.02  626.84  0. 1.0000     0. 
  -3  -3  10   7491.50  616.08  0. 1.0000     0. 
  -3  -3  10   7729.32  547.28  0. 1.0000     0. 
  -3   3  11    443.94  284.26  0. 1.0000     0. 
  -3  -3 -11    288.50  295.58  0. 1.0000     0. 
   3   3  11    783.97  184.60  0. 1.0000     0. 
  -3  -3  11    450.17  374.01  0. 1.0000     0. 
  -3  -3  11   1212.63  231.31  0. 1.0000     0. 
  -3   3  12   4057.19  340.03  0. 1.0000     0. 
  -3   3  12   3703.28  414.50  0. 1.0000     0. 
  -3  -3 -12   3677.80  432.90  0. 1.0000     0. 
   3   3  12   3558.89  302.10  0. 1.0000     0. 
  -3  -3  12   3697.62  340.60  0. 1.0000     0. 
  -3   3  13    177.86  319.65  0. 1.0000     0. 
   3   3  13     49.12  158.69  0. 1.0000     0. 
   3   3  13    -21.28   65.97  0. 1.0000     0. 
  -3  -3  13      7.48  148.16  0. 1.0000     0. 
  -3  -3  13   -243.54  449.32  0. 1.0000     0. 
  -3   3  14   2453.00  493.20  0. 1.0000     0. 
  -3   3  14   1993.77  227.07  0. 1.0000     0. 
   3   3  14   1474.23  130.04  0. 1.0000     0. 
   3   3  14   1457.81  206.60  0. 1.0000     0. 
  -3  -3  14   1503.96  227.09  0. 1.0000     0. 
  -3  -3  14    944.51  607.59  0. 1.0000     0. 
   3   4   0    303.51  160.93  0. 1.0000     0. 
   3  -4   0    -81.88  143.04  0. 1.0000     0. 
  -3   4   0     18.87   95.75  0. 1.0000     0. 
   3  -4   1   5246.31  355.89  0. 1.0000     0. 
  -3   4   1   5218.00  340.60  0. 1.0000     0. 
   3   4  -1   5484.14  410.25  0. 1.0000     0. 
  -3  -4  -1   5331.25  401.19  0. 1.0000     0. 
   3   4   1   5319.93  374.86  0. 1.0000     0. 
  -3  -4   1   5240.65  388.45  0. 1.0000     0. 
   3  -4  -1   5532.27  427.52  0. 1.0000     0. 
  -3   4  -1   5240.65  329.56  0. 1.0000     0. 
  -3   4   2  95980.00 5260.47  0. 1.0000     0. 
   3   4  -2 103058.01 5696.48  0. 1.0000     0. 
  -3  -4  -2  98556.01 5427.51  0. 1.0000     0. 
   3   4   2 107333.00 5911.66  0. 1.0000     0. 
   3  -4  -2  95640.00 5283.12  0. 1.0000     0. 
  -3   4  -2  97395.00 5325.59  0. 1.0000     0. 
   3  -4   3 120865.99 6608.15  0. 1.0000     0. 
  -3  -4  -3 119989.00 6582.67  0. 1.0000     0. 
   3   4   3 127038.01 6996.03  0. 1.0000     0. 
  -3  -4   3 117016.00 6438.27  0. 1.0000     0. 
   3  -4  -3 142440.00 7862.39  0. 1.0000     0. 
   3  -4   4   6783.69  409.12  0. 1.0000     0. 
  -3   4   4   7893.54  506.23  0. 1.0000     0. 
  -3  -4  -4   6189.12  416.19  0. 1.0000     0. 
   3   4   4   5226.50  372.88  0. 1.0000     0. 
  -3  -4   4   5334.08  393.54  0. 1.0000     0. 
  -3   4  -4   6183.46  374.01  0. 1.0000     0. 
   3  -4   5  72139.99 3966.59  0. 1.0000     0. 
  -3   4   5  68035.01 3762.74  0. 1.0000     0. 
   3   4  -5  81314.00 4532.84  0. 1.0000     0. 
   3   4   5  80379.00 4473.38  0. 1.0000     0. 
  -3  -4   5  75255.00 4178.93  0. 1.0000     0. 
   3  -4  -5  72480.00 4122.31  0. 1.0000     0. 
  -3   4  -5  76132.01 4178.93  0. 1.0000     0. 
  -3   4   6  96064.00 5285.95  0. 1.0000     0. 
   3   4  -6 102916.00 5702.15  0. 1.0000     0. 
  -3  -4  -6 101132.00 5549.26  0. 1.0000     0. 
   3   4   6 101047.00 5571.91  0. 1.0000     0. 
  -3  -4   6  96942.00 5373.72  0. 1.0000     0. 
  -3   4   7   1539.92  249.29  0. 1.0000     0. 
  -3  -4  -7   1520.10  208.29  0. 1.0000     0. 
   3   4   7    928.37  222.88  0. 1.0000     0. 
   3  -4  -7   1975.93  441.68  0. 1.0000     0. 
  -3   4   8    933.75  220.70  0. 1.0000     0. 
  -3  -4  -8    860.98  169.31  0. 1.0000     0. 
   3   4   8    949.32  208.27  0. 1.0000     0. 
  -3  -4   8   1385.62  248.05  0. 1.0000     0. 
   3  -4  -8    604.47  336.35  0. 1.0000     0. 
  -3   4   9   1381.09  288.51  0. 1.0000     0. 
   3   4  -9   1780.86  208.35  0. 1.0000     0. 
  -3  -4  -9   1079.27  307.47  0. 1.0000     0. 
   3   4   9   1441.67  240.26  0. 1.0000     0. 
  -3  -4   9   1627.69  254.36  0. 1.0000     0. 
   3  -4  -9   1054.93  353.34  0. 1.0000     0. 
  -3   4  10    502.26  264.69  0. 1.0000     0. 
   3   4 -10    962.63  160.73  0. 1.0000     0. 
  -3  -4 -10    615.23  278.28  0. 1.0000     0. 
  -3  -4  10    955.27  226.78  0. 1.0000     0. 
  -3   4  11   7885.04  622.31  0. 1.0000     0. 
  -3   4  11   9513.01  651.19  0. 1.0000     0. 
  -3  -4 -11   8363.53  662.51  0. 1.0000     0. 
   3   4  11   8502.26  567.38  0. 1.0000     0. 
  -3  -4  11   8309.73  598.53  0. 1.0000     0. 
  -3  -4  11   6636.46  635.90  0. 1.0000     0. 
  -3   4  12   4796.14  518.12  0. 1.0000     0. 
  -3   4  12   3524.91  287.65  0. 1.0000     0. 
  -3  -4 -12   4184.59  560.02  0. 1.0000     0. 
   3   4  12   3972.25  345.13  0. 1.0000     0. 
  -3  -4  12   3774.06  325.88  0. 1.0000     0. 
  -3  -4  12   4295.01  649.77  0. 1.0000     0. 
  -3   4  13   3323.89  315.40  0. 1.0000     0. 
  -3   4  13   2610.13  477.92  0. 1.0000     0. 
   3   4  13   2210.93  260.76  0. 1.0000     0. 
  -3  -4  13   2978.48  276.19  0. 1.0000     0. 
  -3  -4  13   1229.33  577.01  0. 1.0000     0. 
   3   4  14   3674.97  323.61  0. 1.0000     0. 
   3   4  14   3151.19  219.31  0. 1.0000     0. 
  -3  -4  14   3963.76  781.71  0. 1.0000     0. 
   3   5   0    106.96  155.41  0. 1.0000     0. 
   3  -5   0     -1.06  177.94  0. 1.0000     0. 
  -3   5   0     36.41  116.53  0. 1.0000     0. 
  -3   5   1   2534.26  233.01  0. 1.0000     0. 
  -3  -5  -1   2588.05  277.27  0. 1.0000     0. 
   3   5   1   1850.79  230.41  0. 1.0000     0. 
  -3  -5   1   2686.29  295.30  0. 1.0000     0. 
   3  -5  -1   2131.93  263.42  0. 1.0000     0. 
  -3   5  -1   2607.02  213.51  0. 1.0000     0. 
   3  -5   2   2876.55  272.65  0. 1.0000     0. 
  -3   5   2   3372.02  297.85  0. 1.0000     0. 
  -3  -5  -2   3884.48  338.33  0. 1.0000     0. 
   3   5   2   4255.38  383.35  0. 1.0000     0. 
  -3  -5   2   4306.34  387.88  0. 1.0000     0. 
   3  -5  -2   3137.03  319.93  0. 1.0000     0. 
   3  -5   3  40968.00 2305.49  0. 1.0000     0. 
  -3   5   3  41648.00 2330.97  0. 1.0000     0. 
   3   5  -3  45753.00 2606.74  0. 1.0000     0. 
  -3  -5  -3  40459.00 2275.20  0. 1.0000     0. 
   3   5   3  42865.00 2425.54  0. 1.0000     0. 
  -3  -5   3  42809.00 2430.91  0. 1.0000     0. 
   3  -5  -3  41903.00 2439.13  0. 1.0000     0. 
  -3   5  -3  43969.00 2435.44  0. 1.0000     0. 
   3  -5   4     72.93  152.63  0. 1.0000     0. 
  -3   5   4    333.24  183.92  0. 1.0000     0. 
   3   5  -4     29.70  186.07  0. 1.0000     0. 
  -3  -5  -4    118.52  174.21  0. 1.0000     0. 
   3   5   4    -54.28  195.19  0. 1.0000     0. 
  -3  -5   4    400.06  236.18  0. 1.0000     0. 
   3  -5  -4    187.63  262.85  0. 1.0000     0. 
  -3   5  -4     69.05   94.56  0. 1.0000     0. 
   3  -5   5  27302.00 1534.26  0. 1.0000     0. 
  -3  -5  -5  31993.00 1812.85  0. 1.0000     0. 
   3   5   5  32871.00 1907.42  0. 1.0000     0. 
  -3  -5   5  33352.00 1951.87  0. 1.0000     0. 
   3  -5  -5  30011.00 1823.04  0. 1.0000     0. 
  -3   5  -5  31993.00 1765.00  0. 1.0000     0. 
   3  -5   6  15662.00  891.00  0. 1.0000     0. 
  -3   5   6  15020.00  928.93  0. 1.0000     0. 
   3   5  -6  14844.00  924.97  0. 1.0000     0. 
  -3  -5  -6  16084.00  956.68  0. 1.0000     0. 
   3   5   6  14677.00  919.31  0. 1.0000     0. 
  -3  -5   6  14720.00  901.47  0. 1.0000     0. 
   3  -5  -6  11971.00  950.17  0. 1.0000     0. 
  -3   5  -6  13921.00  784.82  0. 1.0000     0. 
  -3   5   7    677.24  236.18  0. 1.0000     0. 
   3   5  -7   1313.99  211.89  0. 1.0000     0. 
  -3  -5  -7    590.88  212.74  0. 1.0000     0. 
   3   5   7    818.80  245.33  0. 1.0000     0. 
  -3  -5   7    886.47  218.12  0. 1.0000     0. 
   3  -5  -7   1186.30  498.02  0. 1.0000     0. 
  -3   5   8   9504.52  660.82  0. 1.0000     0. 
   3   5  -8  10326.00  680.63  0. 1.0000     0. 
  -3  -5  -8   8904.29  577.58  0. 1.0000     0. 
   3   5   8   9402.60  639.01  0. 1.0000     0. 
  -3  -5   8   9439.40  631.65  0. 1.0000     0. 
   3  -5  -8   9360.13  889.01  0. 1.0000     0. 
  -3   5   9    203.48  276.24  0. 1.0000     0. 
   3   5  -9     60.99  137.43  0. 1.0000     0. 
  -3  -5  -9    195.81  311.72  0. 1.0000     0. 
   3   5   9    164.47  228.71  0. 1.0000     0. 
  -3  -5   9     67.64  159.43  0. 1.0000     0. 
   3  -5  -9    359.29  438.84  0. 1.0000     0. 
  -3   5  10    660.81  327.86  0. 1.0000     0. 
   3   5 -10    452.43  143.18  0. 1.0000     0. 
  -3  -5 -10    462.34  349.09  0. 1.0000     0. 
  -3  -5  10    390.43  164.52  0. 1.0000     0. 
   3  -5 -10    746.88  474.80  0. 1.0000     0. 
  -3   5  11    727.63  379.39  0. 1.0000     0. 
  -3   5  11   1103.34  201.41  0. 1.0000     0. 
   3   5 -11   1005.94  151.47  0. 1.0000     0. 
  -3  -5 -11    454.70  425.25  0. 1.0000     0. 
   3   5  11    749.72  245.84  0. 1.0000     0. 
  -3  -5  11    881.65  199.38  0. 1.0000     0. 
  -3   5  12    367.21  350.23  0. 1.0000     0. 
  -3   5  12    122.23  145.73  0. 1.0000     0. 
  -3  -5 -12    445.64  425.54  0. 1.0000     0. 
   3   5  12    377.41  216.20  0. 1.0000     0. 
  -3  -5  12    346.83  398.07  0. 1.0000     0. 
  -3  -5  12    289.64  158.63  0. 1.0000     0. 
   3   5  13    473.39  223.05  0. 1.0000     0. 
  -3  -5  13    291.62  639.30  0. 1.0000     0. 
  -3  -5 -14    681.48  377.97  0. 1.0000     0. 
   3   6   0    309.46  209.34  0. 1.0000     0. 
  -3  -6   0    215.77  201.16  0. 1.0000     0. 
   3  -6   1  77321.99 4337.48  0. 1.0000     0. 
  -3   6   1  78539.00 4334.65  0. 1.0000     0. 
   3   6  -1  87258.99 4869.76  0. 1.0000     0. 
  -3  -6  -1  78935.00 4394.11  0. 1.0000     0. 
   3   6   1  81993.01 4546.99  0. 1.0000     0. 
  -3  -6   1  79360.00 4428.08  0. 1.0000     0. 
   3  -6  -1  78850.01 4416.76  0. 1.0000     0. 
  -3   6  -1  80011.00 4405.43  0. 1.0000     0. 
   3  -6   2  51614.00 2919.02  0. 1.0000     0. 
  -3   6   2  51954.00 2896.37  0. 1.0000     0. 
   3   6  -2  52463.00 2975.65  0. 1.0000     0. 
  -3  -6  -2  52293.00 2941.67  0. 1.0000     0. 
   3   6   2  52435.00 3006.79  0. 1.0000     0. 
  -3  -6   2  50453.00 2865.23  0. 1.0000     0. 
   3  -6  -2  50396.00 2868.06  0. 1.0000     0. 
  -3   6  -2  53454.00 2967.15  0. 1.0000     0. 
   3  -6   3   7967.15  517.84  0. 1.0000     0. 
  -3   6   3   7692.52  533.97  0. 1.0000     0. 
   3   6  -3   6596.82  496.89  0. 1.0000     0. 
  -3  -6  -3   6930.91  509.34  0. 1.0000     0. 
   3   6   3   6905.43  530.01  0. 1.0000     0. 
  -3  -6   3   6877.12  530.01  0. 1.0000     0. 
   3  -6  -3   8097.39  599.38  0. 1.0000     0. 
  -3   6  -3   7355.60  479.05  0. 1.0000     0. 
   3  -6   4    522.08  145.27  0. 1.0000     0. 
  -3   6   4   1028.88  254.22  0. 1.0000     0. 
  -3  -6  -4    817.10  225.59  0. 1.0000     0. 
   3   6   4    857.87  243.06  0. 1.0000     0. 
  -3  -6   4   1103.34  249.72  0. 1.0000     0. 
   3  -6  -4    783.69  397.23  0. 1.0000     0. 
  -3   6  -4   1312.85  182.64  0. 1.0000     0. 
   3  -6   5    322.76  137.97  0. 1.0000     0. 
  -3   6   5    411.95  253.11  0. 1.0000     0. 
   3   6  -5    535.39  198.98  0. 1.0000     0. 
  -3  -6  -5    500.28  246.32  0. 1.0000     0. 
   3   6   5    598.24  304.64  0. 1.0000     0. 
  -3  -6   5    478.20  226.44  0. 1.0000     0. 
   3  -6  -5    374.29  351.36  0. 1.0000     0. 
  -3   6  -5    551.53  118.74  0. 1.0000     0. 
  -3   6   6   8805.20  633.35  0. 1.0000     0. 
   3   6  -6  10133.00  676.67  0. 1.0000     0. 
  -3  -6  -6   9793.31  646.66  0. 1.0000     0. 
   3  -6  -6   9538.50  808.32  0. 1.0000     0. 
  -3   6  -6   9535.66  560.30  0. 1.0000     0. 
   3   6   7  31937.00 1865.80  0. 1.0000     0. 
  -3  -6   7  30436.00 1795.58  0. 1.0000     0. 
  -3   6   8   4139.29  441.96  0. 1.0000     0. 
  -3  -6  -8   3759.91  353.06  0. 1.0000     0. 
   3   6   8   3292.75  378.54  0. 1.0000     0. 
  -3  -6   8   3465.46  378.54  0. 1.0000     0. 
   3  -6  -8   4314.83  720.55  0. 1.0000     0. 
  -3   6   9   7477.34  626.84  0. 1.0000     0. 
   3   6  -9   8822.19  591.17  0. 1.0000     0. 
  -3  -6  -9   6661.94  505.10  0. 1.0000     0. 
   3   6   9   7046.99  547.00  0. 1.0000     0. 
  -3  -6   9   7904.86  615.80  0. 1.0000     0. 
   3  -6  -9   6333.52  904.87  0. 1.0000     0. 
  -3   6  10  17364.00 1143.26  0. 1.0000     0. 
  -3  -6 -10  16520.00 1152.60  0. 1.0000     0. 
   3  -6 -10  16370.00 1381.09  0. 1.0000     0. 
   3   6 -11    629.10  129.45  0. 1.0000     0. 
  -3  -6 -11   1777.46  476.50  0. 1.0000     0. 
   3   6  11   1116.93  259.12  0. 1.0000     0. 
  -3  -6  11   1104.19  252.55  0. 1.0000     0. 
   3  -6 -11   1954.13  690.54  0. 1.0000     0. 
  -3  -6 -12    257.59  586.07  0. 1.0000     0. 
   3   6  12    644.96  262.15  0. 1.0000     0. 
  -3  -6  12    416.76  441.68  0. 1.0000     0. 
  -3  -6  12    640.71  224.29  0. 1.0000     0. 
   3   6  13     36.69  215.37  0. 1.0000     0. 
  -3  -6  13     40.37  162.80  0. 1.0000     0. 
  -3  -6  13    217.81  582.11  0. 1.0000     0. 
  -3  -7   0    188.11  242.67  0. 1.0000     0. 
   3  -7   0   -184.97  327.29  0. 1.0000     0. 
  -3   7   0     28.82  180.86  0. 1.0000     0. 
   3  -7   1  24032.00 1482.73  0. 1.0000     0. 
  -3   7   1  25102.00 1449.32  0. 1.0000     0. 
   3   7  -1  28262.00 1669.31  0. 1.0000     0. 
   3   7   1  27279.00 1601.07  0. 1.0000     0. 
  -3  -7   1  26908.00 1601.64  0. 1.0000     0. 
   3  -7  -1  23831.00 1463.76  0. 1.0000     0. 
   3  -7   2  15561.00  938.84  0. 1.0000     0. 
  -3   7   2  18245.00 1089.47  0. 1.0000     0. 
   3   7  -2  19748.00 1222.25  0. 1.0000     0. 
  -3  -7  -2  17460.00 1077.29  0. 1.0000     0. 
   3   7   2  20201.00 1302.66  0. 1.0000     0. 
  -3  -7   2  20000.00 1229.90  0. 1.0000     0. 
   3  -7  -2  18913.00 1245.47  0. 1.0000     0. 
  -3   7  -2  20524.00 1203.00  0. 1.0000     0. 
  -3   7   3    896.09  248.30  0. 1.0000     0. 
   3   7  -3   1108.72  254.45  0. 1.0000     0. 
  -3  -7  -3   1311.15  273.58  0. 1.0000     0. 
   3   7   3    975.65  323.05  0. 1.0000     0. 
  -3  -7   3    998.30  256.85  0. 1.0000     0. 
   3  -7  -3    939.98  359.29  0. 1.0000     0. 
  -3   7  -3   1080.12  200.00  0. 1.0000     0. 
   3  -7   4   1991.79  195.21  0. 1.0000     0. 
  -3   7   4   2211.21  325.03  0. 1.0000     0. 
   3   7  -4   2519.25  322.20  0. 1.0000     0. 
  -3  -7  -4   2043.32  315.97  0. 1.0000     0. 
   3   7   4   2171.85  326.73  0. 1.0000     0. 
  -3  -7   4   2098.81  328.99  0. 1.0000     0. 
   3  -7  -4   2251.13  425.25  0. 1.0000     0. 
  -3   7  -4   2295.01  221.06  0. 1.0000     0. 
   3  -7   5    143.03  132.36  0. 1.0000     0. 
  -3   7   5    227.29  281.96  0. 1.0000     0. 
   3   7  -5    294.17  229.19  0. 1.0000     0. 
  -3  -7  -5    -17.49  266.20  0. 1.0000     0. 
   3   7   5    321.35  265.74  0. 1.0000     0. 
   3  -7  -5    -18.15  438.56  0. 1.0000     0. 
  -3   7  -5    218.54  128.34  0. 1.0000     0. 
   3  -7   6    992.92  149.26  0. 1.0000     0. 
  -3  -7  -6    719.42  282.13  0. 1.0000     0. 
  -3  -7   6   1430.63  310.30  0. 1.0000     0. 
   3  -7  -6   1077.86  473.10  0. 1.0000     0. 
  -3   7   7   3796.71  436.30  0. 1.0000     0. 
   3   7  -7   4187.42  389.58  0. 1.0000     0. 
   3   7   7   3626.84  441.11  0. 1.0000     0. 
  -3  -7   7   4133.63  432.62  0. 1.0000     0. 
  -3   7  -7   3768.40  250.76  0. 1.0000     0. 
   3  -7   8    101.42  146.40  0. 1.0000     0. 
  -3   7   8    405.44  316.82  0. 1.0000     0. 
   3   7  -8    207.47  177.38  0. 1.0000     0. 
  -3  -7  -8    579.56  284.26  0. 1.0000     0. 
   3   7   8    400.06  283.12  0. 1.0000     0. 
  -3  -7   8    370.33  222.96  0. 1.0000     0. 
   3  -7  -8    863.82  678.93  0. 1.0000     0. 
  -3   7  -8    111.61   56.85  0. 1.0000     0. 
  -3   7   9   5968.28  584.94  0. 1.0000     0. 
   3   7  -9   7245.18  507.08  0. 1.0000     0. 
  -3  -7  -9   5832.38  460.36  0. 1.0000     0. 
   3   7   9   6084.37  530.86  0. 1.0000     0. 
  -3  -7   9   6166.47  500.00  0. 1.0000     0. 
   3  -7  -9   6138.16 1057.76  0. 1.0000     0. 
  -3   7  -9   7978.47  450.45  0. 1.0000     0. 
  -3   7  10   4798.98  565.68  0. 1.0000     0. 
  -3  -7 -10   4345.98  711.78  0. 1.0000     0. 
  -3  -7  10   4343.14  393.26  0. 1.0000     0. 
   3  -7 -10   4682.89 1036.24  0. 1.0000     0. 
   3   7 -11    533.41  116.25  0. 1.0000     0. 
  -3  -7 -11    247.37  482.45  0. 1.0000     0. 
   3   7  11    202.72  270.75  0. 1.0000     0. 
  -3  -7  11    223.16  201.08  0. 1.0000     0. 
   3   7 -12   2467.16  211.24  0. 1.0000     0. 
  -3  -7 -12   1703.28  904.02  0. 1.0000     0. 
   3   7  12    886.18  268.63  0. 1.0000     0. 
  -3  -7  12    946.77  231.17  0. 1.0000     0. 
   3   8   0     18.81  244.85  0. 1.0000     0. 
  -3  -8   0    129.42  277.77  0. 1.0000     0. 
   3  -8   0    115.54  391.56  0. 1.0000     0. 
   3  -8   1    461.78  298.70  0. 1.0000     0. 
  -3   8   1    511.61  250.57  0. 1.0000     0. 
   3   8  -1    639.86  270.70  0. 1.0000     0. 
  -3  -8  -1   1033.69  288.22  0. 1.0000     0. 
   3   8   1    624.29  287.65  0. 1.0000     0. 
  -3  -8   1    554.08  292.47  0. 1.0000     0. 
   3  -8  -1    596.83  419.88  0. 1.0000     0. 
  -3   8  -1    435.16  201.41  0. 1.0000     0. 
   3  -8   2  19213.00 1122.59  0. 1.0000     0. 
  -3   8   2  17763.00 1100.23  0. 1.0000     0. 
   3   8  -2  17424.00 1117.78  0. 1.0000     0. 
  -3  -8  -2  18123.00 1150.62  0. 1.0000     0. 
   3   8   2  18964.00 1265.85  0. 1.0000     0. 
  -3  -8   2  18573.00 1176.95  0. 1.0000     0. 
   3  -8  -2  17687.00 1209.23  0. 1.0000     0. 
  -3   8  -2  18332.00 1094.56  0. 1.0000     0. 
   3  -8   3  25776.00 1451.30  0. 1.0000     0. 
  -3   8   3  23768.00 1419.31  0. 1.0000     0. 
   3   8  -3  23061.00 1419.02  0. 1.0000     0. 
  -3  -8  -3  22925.00 1394.39  0. 1.0000     0. 
   3   8   3  23284.00 1483.29  0. 1.0000     0. 
  -3  -8   3  23933.00 1464.32  0. 1.0000     0. 
   3  -8  -3  23397.00 1530.86  0. 1.0000     0. 
  -3   8  -3  23502.00 1363.53  0. 1.0000     0. 
   3  -8   4   2439.69  234.60  0. 1.0000     0. 
  -3   8   4   1922.42  319.93  0. 1.0000     0. 
   3   8  -4   1852.77  292.47  0. 1.0000     0. 
  -3  -8  -4   2033.97  379.11  0. 1.0000     0. 
   3   8   4   1873.44  357.87  0. 1.0000     0. 
  -3  -8   4   2218.57  341.45  0. 1.0000     0. 
   3  -8  -4   2764.72  484.71  0. 1.0000     0. 
  -3   8  -4   2064.83  225.62  0. 1.0000     0. 
   3  -8   5  12373.00  729.61  0. 1.0000     0. 
  -3   8   5  12282.00  839.18  0. 1.0000     0. 
   3   8  -5  12995.00  860.14  0. 1.0000     0. 
  -3  -8  -5  13324.00  900.34  0. 1.0000     0. 
   3   8   5  12642.00  870.89  0. 1.0000     0. 
  -3  -8   5  12684.00  871.18  0. 1.0000     0. 
   3  -8  -5  11914.00 1042.18  0. 1.0000     0. 
  -3   8  -5  12627.00  747.17  0. 1.0000     0. 
   3  -8   6  16130.00  920.72  0. 1.0000     0. 
  -3   8   6  15368.00 1018.40  0. 1.0000     0. 
   3   8  -6  15603.00 1002.83  0. 1.0000     0. 
  -3  -8  -6  16087.00 1045.02  0. 1.0000     0. 
  -3  -8   6  15546.00 1017.84  0. 1.0000     0. 
   3  -8  -6  17837.00 1444.79  0. 1.0000     0. 
  -3   8  -6  15283.00  883.63  0. 1.0000     0. 
   3  -8   7   1077.58  185.84  0. 1.0000     0. 
  -3   8   7   1117.50  397.51  0. 1.0000     0. 
   3   8  -7   1051.24  232.16  0. 1.0000     0. 
   3   8   7   1389.58  406.28  0. 1.0000     0. 
  -3  -8   7   1261.32  280.01  0. 1.0000     0. 
   3  -8  -7   1933.46  695.07  0. 1.0000     0. 
  -3   8  -7   1002.55  132.64  0. 1.0000     0. 
  -3   8   8    173.98  357.59  0. 1.0000     0. 
   3   8  -8    -67.67  152.41  0. 1.0000     0. 
  -3  -8  -8    -33.58  327.86  0. 1.0000     0. 
   3   8   8    136.98  342.30  0. 1.0000     0. 
  -3  -8   8     88.00  235.22  0. 1.0000     0. 
  -3   8  -8     34.57   60.87  0. 1.0000     0. 
   3  -8   9      8.83  163.16  0. 1.0000     0. 
  -3   8   9     69.17  384.20  0. 1.0000     0. 
   3   8  -9     30.21  133.44  0. 1.0000     0. 
  -3  -8  -9    173.98  299.83  0. 1.0000     0. 
   3   8   9     97.68  288.22  0. 1.0000     0. 
  -3  -8   9     51.56  201.16  0. 1.0000     0. 
   3  -8  -9    948.75  973.95  0. 1.0000     0. 
  -3   8  -9     13.65   42.44  0. 1.0000     0. 
   3   8 -10    534.82  153.88  0. 1.0000     0. 
  -3  -8 -10    503.96  632.22  0. 1.0000     0. 
  -3  -8  10    285.67  211.44  0. 1.0000     0. 
   3   8 -11   2494.62  236.35  0. 1.0000     0. 
  -3  -8 -11   2073.33  847.96  0. 1.0000     0. 
   3   8  11   1365.51  355.61  0. 1.0000     0. 
  -3  -8  11   1326.44  260.79  0. 1.0000     0. 
   3   9   0     53.79  268.69  0. 1.0000     0. 
  -3  -9   0      9.74  287.94  0. 1.0000     0. 
   3  -9   0     -4.17  431.48  0. 1.0000     0. 
  -3   9   0    -17.33  219.65  0. 1.0000     0. 
   3  -9   1    270.33  327.29  0. 1.0000     0. 
   3   9  -1    325.88  284.54  0. 1.0000     0. 
  -3  -9  -1    115.54  301.53  0. 1.0000     0. 
  -3  -9   1    293.32  296.43  0. 1.0000     0. 
   3  -9  -1    306.91  435.73  0. 1.0000     0. 
  -3   9  -1    305.49  220.98  0. 1.0000     0. 
   3  -9   2   2893.54  342.58  0. 1.0000     0. 
  -3   9   2   3550.39  433.46  0. 1.0000     0. 
   3   9  -2   4286.52  464.89  0. 1.0000     0. 
   3   9   2   4283.69  544.73  0. 1.0000     0. 
  -3  -9   2   3657.98  441.96  0. 1.0000     0. 
   3  -9  -2   2421.57  516.99  0. 1.0000     0. 
  -3   9  -2   3952.43  365.52  0. 1.0000     0. 
   3  -9   3   8527.74  551.81  0. 1.0000     0. 
  -3   9   3   8751.41  672.42  0. 1.0000     0. 
   3   9  -3   8442.80  655.43  0. 1.0000     0. 
  -3  -9  -3   8074.74  667.61  0. 1.0000     0. 
   3   9   3   8420.15  785.39  0. 1.0000     0. 
  -3  -9   3   8137.02  656.28  0. 1.0000     0. 
   3  -9  -3   7851.07  812.85  0. 1.0000     0. 
  -3   9  -3   8629.66  601.92  0. 1.0000     0. 
   3  -9   4    -81.34  177.41  0. 1.0000     0. 
  -3   9   4     40.01  295.30  0. 1.0000     0. 
   3   9  -4     82.05  212.00  0. 1.0000     0. 
  -3  -9  -4    -72.20  368.91  0. 1.0000     0. 
   3   9   4     -5.55  369.76  0. 1.0000     0. 
  -3  -9   4   -106.57  295.58  0. 1.0000     0. 
   3  -9  -4    311.15  514.72  0. 1.0000     0. 
  -3   9  -4    -60.76  162.12  0. 1.0000     0. 
   3  -9   5   7658.54  483.58  0. 1.0000     0. 
  -3   9   5   7975.64  660.53  0. 1.0000     0. 
   3   9  -5   8751.41  659.40  0. 1.0000     0. 
  -3  -9  -5   7986.97  667.04  0. 1.0000     0. 
   3   9   5   7817.09  671.29  0. 1.0000     0. 
  -3  -9   5   8168.17  660.53  0. 1.0000     0. 
   3  -9  -5   7616.07  874.57  0. 1.0000     0. 
  -3   9  -5   8762.73  546.15  0. 1.0000     0. 
   3  -9   6   6537.37  419.03  0. 1.0000     0. 
  -3   9   6   5699.31  577.01  0. 1.0000     0. 
   3   9  -6   6302.37  524.07  0. 1.0000     0. 
  -3  -9  -6   5857.87  599.09  0. 1.0000     0. 
   3   9   6   5455.83  573.61  0. 1.0000     0. 
  -3  -9   6   5883.35  520.67  0. 1.0000     0. 
   3  -9  -6   6058.88 1020.38  0. 1.0000     0. 
  -3   9  -6   5973.95  389.01  0. 1.0000     0. 
  -3   9   7     80.29  405.15  0. 1.0000     0. 
   3   9  -7     73.90  186.78  0. 1.0000     0. 
   3   9   7    -98.84  336.07  0. 1.0000     0. 
  -3  -9   7     30.52  251.47  0. 1.0000     0. 
   3  -9  -7     47.00  762.46  0. 1.0000     0. 
  -3   9  -7      0.27   99.43  0. 1.0000     0. 
   3  -9   8    558.04  266.00  0. 1.0000     0. 
  -3   9   8   1325.03  481.03  0. 1.0000     0. 
   3   9  -8   1764.44  251.27  0. 1.0000     0. 
  -3  -9  -8   1121.74  386.18  0. 1.0000     0. 
   3   9   8   1303.79  408.83  0. 1.0000     0. 
  -3  -9   8   1391.00  311.44  0. 1.0000     0. 
  -3   9  -8   1553.79  150.79  0. 1.0000     0. 
   3  -9   9    148.13  244.76  0. 1.0000     0. 
   3   9  -9    350.23  155.41  0. 1.0000     0. 
  -3  -9  -9     83.38  402.04  0. 1.0000     0. 
   3   9   9    127.60  371.46  0. 1.0000     0. 
  -3  -9   9    102.01  228.85  0. 1.0000     0. 
  -3   9  -9    208.41   51.27  0. 1.0000     0. 
   3   9 -10     52.89  138.39  0. 1.0000     0. 
  -3  -9  10   -178.82  214.35  0. 1.0000     0. 
   3  10   0      0.82  275.23  0. 1.0000     0. 
  -3 -10   0    126.53  352.21  0. 1.0000     0. 
   3 -10   0     63.25  439.69  0. 1.0000     0. 
  -3  10   0    -15.52  248.33  0. 1.0000     0. 
   3 -10   1   6308.03  693.37  0. 1.0000     0. 
  -3  10   1   7760.47  635.05  0. 1.0000     0. 
   3  10  -1   7086.63  618.63  0. 1.0000     0. 
  -3 -10  -1   6976.21  628.82  0. 1.0000     0. 
   3  10   1   7046.99  630.24  0. 1.0000     0. 
  -3 -10   1   7083.80  626.27  0. 1.0000     0. 
   3 -10  -1   6837.48  783.69  0. 1.0000     0. 
  -3  10  -1   7194.22  563.14  0. 1.0000     0. 
   3  10   2   4957.53  555.21  0. 1.0000     0. 
  -3 -10   2   5172.70  553.51  0. 1.0000     0. 
   3 -10  -2   5164.21  739.81  0. 1.0000     0. 
  -3  10  -2   4906.56  421.86  0. 1.0000     0. 
   3 -10   3    522.08  270.07  0. 1.0000     0. 
  -3  10   3    932.62  379.67  0. 1.0000     0. 
   3  10  -3    545.02  308.04  0. 1.0000     0. 
  -3 -10  -3    748.02  431.77  0. 1.0000     0. 
   3  10   3    258.13  455.27  0. 1.0000     0. 
   3 -10  -3    685.16  649.77  0. 1.0000     0. 
   3 -10   4     38.76  230.01  0. 1.0000     0. 
  -3  10   4   -261.98  346.83  0. 1.0000     0. 
   3  10  -4     84.03  260.11  0. 1.0000     0. 
  -3 -10  -4     -1.19  433.46  0. 1.0000     0. 
   3  10   4   -255.97  426.10  0. 1.0000     0. 
  -3 -10   4   -169.59  325.03  0. 1.0000     0. 
   3 -10  -4     -7.25  628.54  0. 1.0000     0. 
  -3  10  -4    -42.64  198.84  0. 1.0000     0. 
   3 -10   5    -28.62  234.17  0. 1.0000     0. 
  -3  10   5    108.01  390.71  0. 1.0000     0. 
   3  10  -5     -9.62  220.33  0. 1.0000     0. 
  -3 -10  -5     18.05  449.60  0. 1.0000     0. 
   3  10   5    -69.90  438.28  0. 1.0000     0. 
  -3 -10   5    -32.19  282.33  0. 1.0000     0. 
   3 -10  -5    124.07  756.79  0. 1.0000     0. 
  -3  10  -5     21.21  127.72  0. 1.0000     0. 
  -3  10   6   1051.53  486.98  0. 1.0000     0. 
   3  10  -6   1009.91  284.26  0. 1.0000     0. 
  -3 -10  -6   1384.77  503.96  0. 1.0000     0. 
   3  10   6    872.31  421.01  0. 1.0000     0. 
  -3 -10   6    925.82  332.39  0. 1.0000     0. 
  -3  10  -6    984.99  155.32  0. 1.0000     0. 
   3  10   7   2823.61  543.60  0. 1.0000     0. 
  -3 -10   7   3389.01  447.34  0. 1.0000     0. 
  -3  10  -7   3524.91  250.99  0. 1.0000     0. 
   3 -10   8    242.44  334.65  0. 1.0000     0. 
   3  10  -8    782.56  205.97  0. 1.0000     0. 
  -3 -10   8    906.00  275.91  0. 1.0000     0. 
  -3  10  -8    838.33  111.30  0. 1.0000     0. 
   3  10  -9    500.57  200.03  0. 1.0000     0. 
   3  11   0     59.94  296.43  0. 1.0000     0. 
  -3 -11   0    -24.77  381.37  0. 1.0000     0. 
   3 -11   0    123.75  480.18  0. 1.0000     0. 
  -3  11   0    -28.51  280.12  0. 1.0000     0. 
   3 -11   1   2398.64  664.21  0. 1.0000     0. 
  -3  11   1   3278.59  416.48  0. 1.0000     0. 
   3  11  -1   3287.09  472.54  0. 1.0000     0. 
   3  11   1   2899.20  471.12  0. 1.0000     0. 
  -3 -11   1   3148.35  499.43  0. 1.0000     0. 
   3 -11  -1   2642.41  653.45  0. 1.0000     0. 
  -3  11  -1   3258.77  382.79  0. 1.0000     0. 
   3 -11   2   2210.64  556.62  0. 1.0000     0. 
  -3  11   2   3264.44  486.13  0. 1.0000     0. 
   3  11  -2   3578.71  481.88  0. 1.0000     0. 
   3 -11  -2   3241.79  734.43  0. 1.0000     0. 
  -3  11  -2   2766.98  334.65  0. 1.0000     0. 
   3 -11   3    151.33  379.39  0. 1.0000     0. 
  -3  11   3    284.82  395.53  0. 1.0000     0. 
   3  11   3    253.26  426.95  0. 1.0000     0. 
  -3 -11   3     20.35  328.43  0. 1.0000     0. 
   3 -11  -3    -68.52  673.55  0. 1.0000     0. 
  -3  11  -3     13.89  191.34  0. 1.0000     0. 
   3 -11   4     64.18  360.14  0. 1.0000     0. 
  -3  11   4    170.33  451.02  0. 1.0000     0. 
   3  11  -4    325.03  235.90  0. 1.0000     0. 
  -3 -11   4    357.30  308.04  0. 1.0000     0. 
  -3  11  -4    298.70  179.30  0. 1.0000     0. 
   3 -11   5    115.88  366.36  0. 1.0000     0. 
   3  11  -5    374.01  244.00  0. 1.0000     0. 
  -3 -11   5    310.87  344.28  0. 1.0000     0. 
  -3  11  -5    414.50  148.24  0. 1.0000     0. 
   3 -11   6    352.77  400.62  0. 1.0000     0. 
   3  11  -6    509.34  280.35  0. 1.0000     0. 
  -3  11  -6    761.89  140.91  0. 1.0000     0. 
   3 -11   7    293.32  385.62  0. 1.0000     0. 
  -3  11  -7    545.87  111.21  0. 1.0000     0. 
   3 -12   0    352.77  645.53  0. 1.0000     0. 
   3 -12   1   -131.99  601.36  0. 1.0000     0. 
  -3  12   1    109.48  316.53  0. 1.0000     0. 
  -3  12  -1      2.18  286.24  0. 1.0000     0. 
   3 -12   2   1310.59  694.22  0. 1.0000     0. 
  -3  12  -2    657.98  248.84  0. 1.0000     0. 
  -3  12  -3   1663.36  315.97  0. 1.0000     0. 
   3 -12   4    211.89  528.59  0. 1.0000     0. 
  -3  12  -5    454.42  158.29  0. 1.0000     0. 
   4   0   0 879104.0047848.00  0. 1.0000     0. 
  -4   0   0 926386.0650425.00  0. 1.0000     0. 
   4   0   1 311721.0317007.00  0. 1.0000     0. 
  -4   0   1 342299.0018669.00  0. 1.0000     0. 
   4   0  -1 323045.9717605.00  0. 1.0000     0. 
  -4   0  -1 344281.0018774.00  0. 1.0000     0. 
   4   0   2  38590.00 2150.62  0. 1.0000     0. 
  -4   0   2  42667.00 2400.34  0. 1.0000     0. 
   4   0  -2  39892.00 2258.49  0. 1.0000     0. 
  -4   0  -2  44592.00 2469.99  0. 1.0000     0. 
  -4   0   3   2654.87  280.38  0. 1.0000     0. 
   4   0  -3   1895.81  206.88  0. 1.0000     0. 
  -4   0  -3   2167.61  172.23  0. 1.0000     0. 
   4   0   4  17477.00  983.29  0. 1.0000     0. 
  -4   0   4  20059.00 1211.21  0. 1.0000     0. 
   4   0   5  27670.00 1535.11  0. 1.0000     0. 
  -4   0   5  30719.00 1783.41  0. 1.0000     0. 
  -4   0   5  31993.00 1867.50  0. 1.0000     0. 
  -4   0  -5  30238.00 1663.64  0. 1.0000     0. 
   4   0   6  12967.00  729.33  0. 1.0000     0. 
  -4   0   6  14861.00  944.51  0. 1.0000     0. 
  -4   0   6  14332.00  972.25  0. 1.0000     0. 
  -4   0  -6  13533.00  750.57  0. 1.0000     0. 
  -4   0   7  75566.00 4297.84  0. 1.0000     0. 
  -4   0  -7  76896.99 4263.87  0. 1.0000     0. 
  -4   0   8 241364.0213247.00  0. 1.0000     0. 
  -4   0   8 256454.9814173.00  0. 1.0000     0. 
  -4   0   9 114609.01 6356.17  0. 1.0000     0. 
  -4   0   9 136551.00 7613.24  0. 1.0000     0. 
  -4   0  10  13743.00  883.92  0. 1.0000     0. 
  -4   0  11   1170.16  235.39  0. 1.0000     0. 
  -4   0  11    242.21  412.80  0. 1.0000     0. 
  -4   0  13   7876.55  834.09  0. 1.0000     0. 
  -4   0  14   3808.04  356.74  0. 1.0000     0. 
  -4   0  14   2050.68  814.84  0. 1.0000     0. 
   4   1   0 316251.0317262.00  0. 1.0000     0. 
  -4  -1   0 297565.0016249.00  0. 1.0000     0. 
  -4   1   0 296432.0016161.00  0. 1.0000     0. 
  -4   1   0 331257.0018072.00  0. 1.0000     0. 
  -4   1   1 204217.9811158.00  0. 1.0000     0. 
  -4   1   1 204643.0011198.00  0. 1.0000     0. 
   4   1  -1 194988.0010674.00  0. 1.0000     0. 
  -4  -1  -1 196829.0010753.00  0. 1.0000     0. 
   4   1   1 200509.0010965.00  0. 1.0000     0. 
  -4  -1   1 201840.0211059.00  0. 1.0000     0. 
  -4   1  -1 200622.9810965.00  0. 1.0000     0. 
  -4   1  -1 185957.0010147.00  0. 1.0000     0. 
  -4   1   2  10538.00  663.93  0. 1.0000     0. 
   4   1  -2  10255.00  660.25  0. 1.0000     0. 
  -4  -1  -2  10679.00  626.56  0. 1.0000     0. 
   4   1   2  10617.00  650.34  0. 1.0000     0. 
  -4  -1   2  11158.00  730.75  0. 1.0000     0. 
  -4   1  -2  10345.00  612.12  0. 1.0000     0. 
  -4   1   3  57956.00 3272.93  0. 1.0000     0. 
  -4   1   3  57474.00 3224.80  0. 1.0000     0. 
   4   1  -3  54841.00 3088.90  0. 1.0000     0. 
  -4  -1  -3  58267.00 3219.14  0. 1.0000     0. 
   4   1   3  59711.00 3312.57  0. 1.0000     0. 
  -4   1  -3  54898.00 3012.45  0. 1.0000     0. 
  -4   1  -3  53086.00 2921.85  0. 1.0000     0. 
  -4  -1  -4 228142.0012443.00  0. 1.0000     0. 
   4   1   4 205492.0011226.00  0. 1.0000     0. 
  -4  -1   4 214551.9811792.00  0. 1.0000     0. 
  -4   1  -4 223273.0012214.00  0. 1.0000     0. 
  -4   1  -4 217581.9811908.00  0. 1.0000     0. 
  -4   1   5 100651.01 5586.06  0. 1.0000     0. 
  -4   1   5 116901.99 6517.55  0. 1.0000     0. 
   4   1  -5  94054.00 5220.83  0. 1.0000     0. 
  -4  -1  -5 108635.00 5934.31  0. 1.0000     0. 
   4   1   5  96064.00 5260.47  0. 1.0000     0. 
  -4  -1   5 102690.01 5704.98  0. 1.0000     0. 
  -4   1   6  32078.00 1864.66  0. 1.0000     0. 
  -4   1   6  38024.00 2249.43  0. 1.0000     0. 
   4   1  -6  30691.00 1769.25  0. 1.0000     0. 
  -4  -1  -6  35504.00 1953.57  0. 1.0000     0. 
   4   1   6  30861.00 1713.19  0. 1.0000     0. 
  -4  -1   6  32701.00 1891.28  0. 1.0000     0. 
  -4   1   7  24408.00 1475.37  0. 1.0000     0. 
  -4   1   7  29247.00 1718.85  0. 1.0000     0. 
  -4  -1  -7  24148.00 1331.54  0. 1.0000     0. 
   4   1   7  27118.00 1510.47  0. 1.0000     0. 
  -4  -1   7  22752.00 1371.74  0. 1.0000     0. 
  -4  -1   7  28397.00 1661.10  0. 1.0000     0. 
  -4   1   8  87486.01 4957.53  0. 1.0000     0. 
  -4   1   8  86494.99 4827.29  0. 1.0000     0. 
  -4  -1  -8  83154.00 4566.81  0. 1.0000     0. 
   4   1   8  84145.00 4614.94  0. 1.0000     0. 
  -4  -1   8  86862.99 4849.94  0. 1.0000     0. 
  -4  -1   8  81511.99 4654.58  0. 1.0000     0. 
  -4   1   9  79189.99 4535.67  0. 1.0000     0. 
  -4   1   9  66562.99 3748.58  0. 1.0000     0. 
  -4  -1  -9  75170.00 4147.79  0. 1.0000     0. 
   4   1   9  70442.00 3867.49  0. 1.0000     0. 
  -4  -1   9  77152.00 4464.89  0. 1.0000     0. 
   4   1  10   6956.39  405.15  0. 1.0000     0. 
   4   1  10   6104.18  355.89  0. 1.0000     0. 
  -4  -1  10   7248.01  575.03  0. 1.0000     0. 
  -4   1  11   4793.31  633.07  0. 1.0000     0. 
  -4   1  11   5702.15  460.36  0. 1.0000     0. 
   4   1  11   4849.94  287.09  0. 1.0000     0. 
   4   1  11   5144.39  301.53  0. 1.0000     0. 
  -4  -1  11   6016.42  491.51  0. 1.0000     0. 
  -4  -1  11   4974.51  620.89  0. 1.0000     0. 
  -4   1  12  13777.00 1128.82  0. 1.0000     0. 
  -4   1  12  15314.00  951.59  0. 1.0000     0. 
  -4   1  13  17613.00 1454.42  0. 1.0000     0. 
  -4   1  13  21172.00 1294.17  0. 1.0000     0. 
  -4  -1  13  22189.00 1347.68  0. 1.0000     0. 
  -4   1  14   4830.12  387.60  0. 1.0000     0. 
  -4   1  14   5317.10  566.82  0. 1.0000     0. 
  -4  -1  14   4479.04  367.50  0. 1.0000     0. 
  -4  -1  14   4031.71  794.73  0. 1.0000     0. 
   4   2   0  25535.00 1471.97  0. 1.0000     0. 
  -4  -2   0  24001.00 1366.08  0. 1.0000     0. 
  -4   2   0  26770.00 1513.87  0. 1.0000     0. 
  -4   2   0  24691.00 1400.62  0. 1.0000     0. 
  -4   2   1   3374.85  255.75  0. 1.0000     0. 
   4   2  -1   3513.59  289.92  0. 1.0000     0. 
  -4  -2  -1   3496.60  261.07  0. 1.0000     0. 
   4   2   1   3607.02  284.54  0. 1.0000     0. 
  -4  -2   1   3779.72  314.55  0. 1.0000     0. 
  -4   2  -1   3374.85  244.05  0. 1.0000     0. 
  -4   2   2  36325.00 2050.39  0. 1.0000     0. 
  -4   2   2  34796.00 1967.44  0. 1.0000     0. 
   4   2  -2  34655.00 1983.86  0. 1.0000     0. 
  -4  -2  -2  33918.00 1895.81  0. 1.0000     0. 
   4   2   2  34230.00 1922.70  0. 1.0000     0. 
  -4  -2   2  34258.00 1969.99  0. 1.0000     0. 
  -4   2  -2  36353.00 2010.47  0. 1.0000     0. 
  -4   2  -2  34938.00 1942.24  0. 1.0000     0. 
  -4   2   3 243261.0013313.00  0. 1.0000     0. 
   4   2  -3 265260.0314510.00  0. 1.0000     0. 
  -4  -2  -3 255266.0013927.00  0. 1.0000     0. 
   4   2   3 262910.0014357.00  0. 1.0000     0. 
  -4   2   4 520668.0328426.00  0. 1.0000     0. 
   4   2  -4 530294.0028935.00  0. 1.0000     0. 
  -4  -2  -4 526047.0028652.00  0. 1.0000     0. 
   4   2   4 549263.0029926.00  0. 1.0000     0. 
  -4  -2   4 536240.0029275.00  0. 1.0000     0. 
  -4   2  -4 511607.9728103.00  0. 1.0000     0. 
  -4   2  -4 554075.9430436.00  0. 1.0000     0. 
  -4   2   5 289353.9715804.00  0. 1.0000     0. 
   4   2  -5 296715.0016246.00  0. 1.0000     0. 
   4   2   5 291619.0015900.00  0. 1.0000     0. 
  -4  -2   5 316251.0317299.00  0. 1.0000     0. 
   4   2   6  11441.00  668.18  0. 1.0000     0. 
  -4  -2   6  10617.00  713.76  0. 1.0000     0. 
  -4   2   7   1227.35  209.09  0. 1.0000     0. 
  -4   2   7   1229.90  270.10  0. 1.0000     0. 
   4   2  -7   1086.35  170.84  0. 1.0000     0. 
  -4  -2  -7   1325.03  149.69  0. 1.0000     0. 
   4   2   7   1333.24  149.86  0. 1.0000     0. 
  -4  -2   7   1048.13  228.99  0. 1.0000     0. 
  -4   2   8  13935.00  961.78  0. 1.0000     0. 
  -4   2   8  17053.00 1062.29  0. 1.0000     0. 
  -4  -2  -8  13672.00  815.97  0. 1.0000     0. 
   4   2   8  13661.00  785.39  0. 1.0000     0. 
  -4  -2   8  15541.00  997.45  0. 1.0000     0. 
  -4   2   9  20750.00 1268.12  0. 1.0000     0. 
  -4   2   9  20467.00 1361.83  0. 1.0000     0. 
  -4  -2  -9  19255.00 1110.42  0. 1.0000     0. 
  -4  -2   9  21110.00 1295.58  0. 1.0000     0. 
  -4   2  10  13137.00 1035.11  0. 1.0000     0. 
  -4  -2 -10  11642.00  747.45  0. 1.0000     0. 
   4   2  10  12704.00  744.62  0. 1.0000     0. 
  -4  -2  10  11082.00  966.59  0. 1.0000     0. 
  -4  -2  10  13001.00  842.86  0. 1.0000     0. 
  -4   2  11   9351.63  971.97  0. 1.0000     0. 
  -4  -2 -11   9402.60  622.88  0. 1.0000     0. 
   4   2  11  11820.00  684.31  0. 1.0000     0. 
  -4  -2  11  12044.00  787.37  0. 1.0000     0. 
  -4   2  12  37797.00 2163.93  0. 1.0000     0. 
  -4   2  12  34060.00 2055.77  0. 1.0000     0. 
   4   2  12  42497.00 2336.07  0. 1.0000     0. 
   4   2  12  42384.00 2336.35  0. 1.0000     0. 
  -4  -2  12  38477.00 2426.10  0. 1.0000     0. 
  -4  -2  12  42242.00 2435.44  0. 1.0000     0. 
  -4   2  13  27661.00 1627.40  0. 1.0000     0. 
  -4   2  13  31399.00 1860.13  0. 1.0000     0. 
   4   2  13  32701.00 1806.62  0. 1.0000     0. 
   4   2  13  29303.00 1624.29  0. 1.0000     0. 
  -4  -2  13  29020.00 1686.58  0. 1.0000     0. 
  -4  -2  13  31512.00 2244.34  0. 1.0000     0. 
  -4  -2  14   4246.88  828.14  0. 1.0000     0. 
  -4  -2  14   3544.73  302.38  0. 1.0000     0. 
   4   3   0 158409.00 8708.94  0. 1.0000     0. 
  -4  -3   0 155861.00 8573.04  0. 1.0000     0. 
   4  -3   0 154671.00 8462.62  0. 1.0000     0. 
  -4   3   0 169960.00 9326.15  0. 1.0000     0. 
  -4   3   1  99066.01 5458.66  0. 1.0000     0. 
   4   3  -1  94309.01 5240.65  0. 1.0000     0. 
  -4  -3  -1  91986.99 5067.95  0. 1.0000     0. 
   4   3   1  91818.01 5065.11  0. 1.0000     0. 
  -4  -3   1  84768.00 4682.89  0. 1.0000     0. 
   4  -3  -1  94167.99 5186.86  0. 1.0000     0. 
  -4   3  -1 102237.00 5583.23  0. 1.0000     0. 
  -4   3   2  22865.00 1336.92  0. 1.0000     0. 
  -4  -3  -2  21580.00 1253.68  0. 1.0000     0. 
   4   3   2  20300.00 1185.45  0. 1.0000     0. 
   4  -3  -2  22489.00 1308.32  0. 1.0000     0. 
  -4   3  -2  22316.00 1236.69  0. 1.0000     0. 
  -4   3  -2  19983.00 1124.57  0. 1.0000     0. 
  -4  -3  -3  84512.99 4657.41  0. 1.0000     0. 
   4   3   3  83154.00 4586.63  0. 1.0000     0. 
  -4  -3   3  79275.00 4413.93  0. 1.0000     0. 
   4  -3  -3  83465.01 4626.27  0. 1.0000     0. 
  -4   3  -3  89892.00 4912.23  0. 1.0000     0. 
  -4   3  -3  88675.00 4858.43  0. 1.0000     0. 
  -4   3   4 233069.0212786.00  0. 1.0000     0. 
   4   3  -4 255549.0214018.00  0. 1.0000     0. 
  -4  -3  -4 240118.9813106.00  0. 1.0000     0. 
  -4  -3   4 239722.0013137.00  0. 1.0000     0. 
  -4   3  -4 246008.0213457.00  0. 1.0000     0. 
  -4   3  -4 241053.0213194.00  0. 1.0000     0. 
   4   3  -5  95583.00 5314.26  0. 1.0000     0. 
   4   3   5  97027.00 5328.42  0. 1.0000     0. 
  -4  -3   5  98301.00 5472.81  0. 1.0000     0. 
  -4   3   6  19485.00 1240.37  0. 1.0000     0. 
  -4   3   6  17307.00 1051.81  0. 1.0000     0. 
   4   3  -6  16679.00 1038.50  0. 1.0000     0. 
  -4  -3  -6  20133.00 1147.51  0. 1.0000     0. 
   4   3   6  19445.00 1125.99  0. 1.0000     0. 
  -4  -3   6  17010.00 1052.94  0. 1.0000     0. 
  -4   3   7   8238.95  702.15  0. 1.0000     0. 
  -4   3   7   8912.79  618.63  0. 1.0000     0. 
   4   3  -7   7834.08  544.45  0. 1.0000     0. 
  -4  -3  -7   8759.90  539.35  0. 1.0000     0. 
   4   3   7   8117.21  544.45  0. 1.0000     0. 
  -4  -3   7   8128.53  575.03  0. 1.0000     0. 
  -4   3   8  50113.00 2834.09  0. 1.0000     0. 
  -4   3   8  50000.00 3032.27  0. 1.0000     0. 
   4   3  -8  44847.00 2546.15  0. 1.0000     0. 
   4   3   8  46376.00 2602.21  0. 1.0000     0. 
  -4   3   9  58296.00 3275.76  0. 1.0000     0. 
  -4   3   9  56823.00 3352.21  0. 1.0000     0. 
  -4  -3  -9  55832.00 3151.19  0. 1.0000     0. 
  -4  -3   9  49858.00 2824.46  0. 1.0000     0. 
  -4   3  10  12860.00  834.94  0. 1.0000     0. 
  -4   3  10  10575.00  718.01  0. 1.0000     0. 
  -4  -3 -10  11639.00  746.89  0. 1.0000     0. 
   4   3  10   9815.96  616.93  0. 1.0000     0. 
  -4  -3  10  10178.00  817.67  0. 1.0000     0. 
  -4  -3  10   9957.52  679.78  0. 1.0000     0. 
  -4   3  11   9852.76  670.44  0. 1.0000     0. 
  -4  -3 -11   8822.19  659.68  0. 1.0000     0. 
   4   3  11   8751.41  558.61  0. 1.0000     0. 
  -4  -3  11   6956.39  817.38  0. 1.0000     0. 
  -4  -3  11   8924.11  619.48  0. 1.0000     0. 
  -4   3  12  17370.00 1065.97  0. 1.0000     0. 
  -4   3  12  14703.00  974.23  0. 1.0000     0. 
  -4  -3 -12  16005.00 1042.47  0. 1.0000     0. 
  -4  -3  12  11455.00 1138.45  0. 1.0000     0. 
  -4   3  13  17925.00 1195.92  0. 1.0000     0. 
  -4   3  13  16033.00 1003.68  0. 1.0000     0. 
   4   3  13  16770.00  948.75  0. 1.0000     0. 
   4   3  13  16138.00  942.24  0. 1.0000     0. 
  -4  -3  13  16181.00 1379.67  0. 1.0000     0. 
  -4  -3  13  15597.00  960.93  0. 1.0000     0. 
  -4  -3  14    709.51  736.41  0. 1.0000     0. 
   4   4   0 548979.9429926.00  0. 1.0000     0. 
  -4  -4   0 519252.0028307.00  0. 1.0000     0. 
   4  -4   0 542751.0029615.00  0. 1.0000     0. 
  -4   4   0 540203.0029388.00  0. 1.0000     0. 
   4  -4   1 244564.0013381.00  0. 1.0000     0. 
  -4   4   1 232842.0012695.00  0. 1.0000     0. 
   4   4  -1 248443.0213616.00  0. 1.0000     0. 
  -4  -4  -1 241505.9813222.00  0. 1.0000     0. 
   4   4   1 255719.0213998.00  0. 1.0000     0. 
  -4  -4   1 246659.0013542.00  0. 1.0000     0. 
   4  -4  -1 250820.9813754.00  0. 1.0000     0. 
  -4   4  -1 249434.0013593.00  0. 1.0000     0. 
   4  -4   2  28766.00 1639.58  0. 1.0000     0. 
   4   4  -2  22506.00 1361.27  0. 1.0000     0. 
  -4  -4  -2  23729.00 1379.95  0. 1.0000     0. 
   4  -4   3   4869.76  318.80  0. 1.0000     0. 
  -4   4   3   5424.68  366.93  0. 1.0000     0. 
   4   4  -3   5135.90  464.33  0. 1.0000     0. 
  -4  -4  -3   4909.40  369.20  0. 1.0000     0. 
  -4  -4   3   5053.79  391.56  0. 1.0000     0. 
   4  -4  -3   6214.60  546.15  0. 1.0000     0. 
  -4   4  -3   5048.13  310.87  0. 1.0000     0. 
  -4   4   4  10529.00  636.75  0. 1.0000     0. 
   4   4  -4  11209.00  755.95  0. 1.0000     0. 
  -4  -4  -4  11498.00  710.65  0. 1.0000     0. 
   4   4   4  10116.00  650.62  0. 1.0000     0. 
  -4  -4   4   9934.87  651.47  0. 1.0000     0. 
   4  -4  -4  11430.00  815.97  0. 1.0000     0. 
  -4   4  -4  10589.00  605.89  0. 1.0000     0. 
  -4   4   5  22013.00 1260.47  0. 1.0000     0. 
   4   4  -5  24340.00 1460.36  0. 1.0000     0. 
  -4  -4  -5  21535.00 1239.81  0. 1.0000     0. 
   4   4   5  24114.00 1404.87  0. 1.0000     0. 
  -4  -4   5  22206.00 1325.59  0. 1.0000     0. 
   4  -4  -5  22571.00 1376.84  0. 1.0000     0. 
  -4   4  -5  21614.00 1200.45  0. 1.0000     0. 
  -4   4  -5  23307.00 1296.15  0. 1.0000     0. 
   4   4  -6   7599.09  550.11  0. 1.0000     0. 
  -4  -4  -6   7148.92  475.37  0. 1.0000     0. 
   4   4   6   7129.10  528.88  0. 1.0000     0. 
  -4  -4   6   6851.64  521.23  0. 1.0000     0. 
   4  -4  -6   6554.35  569.08  0. 1.0000     0. 
  -4   4   7  51840.00 2904.87  0. 1.0000     0. 
   4   4  -7  63250.00 3561.72  0. 1.0000     0. 
  -4  -4  -7  57559.00 3182.33  0. 1.0000     0. 
   4   4   7  62373.00 3482.44  0. 1.0000     0. 
  -4  -4   7  60419.00 3411.66  0. 1.0000     0. 
  -4   4   8 156795.00 8624.00  0. 1.0000     0. 
  -4   4   8 130153.00 7165.90  0. 1.0000     0. 
   4   4  -8 136919.00 7559.45  0. 1.0000     0. 
  -4  -4  -8 140203.98 7667.04  0. 1.0000     0. 
   4   4   8 148754.00 8159.67  0. 1.0000     0. 
  -4  -4   8 133436.98 7381.08  0. 1.0000     0. 
  -4   4   9  90770.01 5036.80  0. 1.0000     0. 
  -4   4   9  89495.99 4994.33  0. 1.0000     0. 
   4   4  -9  78539.00 4371.46  0. 1.0000     0. 
  -4  -4  -9  97932.99 5373.72  0. 1.0000     0. 
  -4  -4   9  81568.01 4558.32  0. 1.0000     0. 
  -4   4  10  10249.00  695.36  0. 1.0000     0. 
   4   4 -10   9317.66  616.08  0. 1.0000     0. 
  -4  -4 -10  11988.00  840.32  0. 1.0000     0. 
   4   4  10  11305.00  699.32  0. 1.0000     0. 
  -4  -4  10  10243.00  702.15  0. 1.0000     0. 
  -4   4  11    413.36  171.01  0. 1.0000     0. 
  -4  -4 -11    365.51  336.07  0. 1.0000     0. 
   4   4  11    402.89  174.49  0. 1.0000     0. 
  -4  -4  11    285.11  191.17  0. 1.0000     0. 
  -4  -4  11    165.52  412.80  0. 1.0000     0. 
  -4   4  12   2642.98  433.47  0. 1.0000     0. 
  -4  -4 -12   1813.98  450.74  0. 1.0000     0. 
  -4  -4  12   3524.91  345.70  0. 1.0000     0. 
  -4  -4  12   1777.74  635.62  0. 1.0000     0. 
  -4  -4 -13   5413.36  645.53  0. 1.0000     0. 
   4   4  13   6047.56  444.22  0. 1.0000     0. 
  -4  -4  13   4473.38  971.69  0. 1.0000     0. 
  -4  -4  13   6599.65  490.09  0. 1.0000     0. 
   4   5   0 236551.0012967.00  0. 1.0000     0. 
  -4  -5   0 216448.9811877.00  0. 1.0000     0. 
  -4   5   0 224122.0012231.00  0. 1.0000     0. 
   4  -5   1 110164.01 6078.70  0. 1.0000     0. 
  -4   5   1 115968.00 6359.00  0. 1.0000     0. 
   4   5  -1 127916.01 7063.98  0. 1.0000     0. 
  -4  -5  -1 117327.01 6477.91  0. 1.0000     0. 
   4   5   1 125340.01 6916.75  0. 1.0000     0. 
   4  -5  -1 128567.00 7131.93  0. 1.0000     0. 
   4  -5   2  14272.00  870.61  0. 1.0000     0. 
  -4   5   2  13262.00  792.47  0. 1.0000     0. 
  -4  -5  -2  12627.00  798.70  0. 1.0000     0. 
   4   5   2  11535.00  729.33  0. 1.0000     0. 
  -4  -5   2  11753.00  768.12  0. 1.0000     0. 
   4  -5  -2  14666.00  992.35  0. 1.0000     0. 
  -4   5  -2  12896.00  747.45  0. 1.0000     0. 
   4  -5   3  11736.00  732.45  0. 1.0000     0. 
  -4   5   3  11421.00  701.87  0. 1.0000     0. 
   4   5  -3  12019.00  829.84  0. 1.0000     0. 
  -4  -5  -3  12166.00  770.67  0. 1.0000     0. 
   4   5   3  11277.00  717.16  0. 1.0000     0. 
  -4  -5   3  10954.00  783.69  0. 1.0000     0. 
   4  -5  -3  11888.00  860.14  0. 1.0000     0. 
  -4   5  -3  12336.00  719.14  0. 1.0000     0. 
   4  -5   4  62910.00 3488.11  0. 1.0000     0. 
  -4   5   4  64156.00 3558.89  0. 1.0000     0. 
   4   5  -4  65600.00 3717.44  0. 1.0000     0. 
  -4  -5  -4  64269.00 3570.21  0. 1.0000     0. 
   4   5   4  60476.00 3360.70  0. 1.0000     0. 
  -4  -5   4  62995.00 3567.38  0. 1.0000     0. 
   4  -5  -4  67214.00 3864.66  0. 1.0000     0. 
  -4   5  -4  68912.99 3782.56  0. 1.0000     0. 
   4  -5   5  40997.00 2269.25  0. 1.0000     0. 
  -4   5   5  41365.00 2333.52  0. 1.0000     0. 
   4   5  -5  40175.00 2318.51  0. 1.0000     0. 
  -4  -5  -5  40940.00 2299.54  0. 1.0000     0. 
   4   5   5  41393.00 2374.57  0. 1.0000     0. 
  -4  -5   5  38363.00 2191.96  0. 1.0000     0. 
   4  -5  -5  44621.00 2672.70  0. 1.0000     0. 
  -4   5  -5  41336.00 2288.22  0. 1.0000     0. 
   4   5  -6  24782.00 1483.29  0. 1.0000     0. 
  -4  -5  -6  24122.00 1394.11  0. 1.0000     0. 
   4   5   6  24966.00 1489.24  0. 1.0000     0. 
  -4  -5   6  23876.00 1420.16  0. 1.0000     0. 
   4  -5  -6  27659.00 1797.28  0. 1.0000     0. 
  -4   5  -6  24587.00 1380.24  0. 1.0000     0. 
  -4   5  -6  24669.00 1387.60  0. 1.0000     0. 
  -4   5   7  25943.00 1529.16  0. 1.0000     0. 
   4   5  -7  28624.00 1681.77  0. 1.0000     0. 
  -4  -5  -7  27786.00 1590.60  0. 1.0000     0. 
  -4   5   8  57899.00 3264.44  0. 1.0000     0. 
  -4  -5  -8  61495.00 3403.17  0. 1.0000     0. 
   4   5   8  61636.00 3439.97  0. 1.0000     0. 
  -4  -5   8  59145.00 3326.72  0. 1.0000     0. 
   4  -5  -8  55040.00 3216.30  0. 1.0000     0. 
  -4   5   9  42327.00 2422.14  0. 1.0000     0. 
  -4   5   9  40091.00 2315.68  0. 1.0000     0. 
   4   5  -9  37486.00 2156.28  0. 1.0000     0. 
  -4  -5  -9  39326.00 2200.45  0. 1.0000     0. 
   4   5   9  41563.00 2353.62  0. 1.0000     0. 
  -4  -5   9  37939.00 2174.40  0. 1.0000     0. 
  -4   5  10   1967.16  258.55  0. 1.0000     0. 
   4   5 -10   1940.26  221.18  0. 1.0000     0. 
   4   5  10   2921.85  305.21  0. 1.0000     0. 
  -4  -5  10   2845.41  314.83  0. 1.0000     0. 
  -4   5  11   1176.67  404.87  0. 1.0000     0. 
  -4   5  11   1261.61  226.73  0. 1.0000     0. 
   4   5 -11   1200.17  180.46  0. 1.0000     0. 
  -4  -5 -11    725.93  355.32  0. 1.0000     0. 
   4   5  11   1055.21  217.81  0. 1.0000     0. 
  -4   5  12   6291.05  750.28  0. 1.0000     0. 
  -4  -5 -12   6670.44  695.64  0. 1.0000     0. 
   4   5  12   6325.02  465.74  0. 1.0000     0. 
  -4  -5  12   6211.77  458.10  0. 1.0000     0. 
  -4  -5  12   4725.36  714.89  0. 1.0000     0. 
  -4  -5 -13   6667.60  882.50  0. 1.0000     0. 
   4   5  13   9110.98  594.00  0. 1.0000     0. 
  -4  -5  13   8550.39 1275.76  0. 1.0000     0. 
  -4  -5  13  10065.00  651.47  0. 1.0000     0. 
   4   6   0  15110.00  979.05  0. 1.0000     0. 
  -4  -6   0  13465.00  880.52  0. 1.0000     0. 
   4  -6   0  14561.00  955.27  0. 1.0000     0. 
  -4   6   1   4328.99  338.33  0. 1.0000     0. 
   4   6  -1   4394.11  424.12  0. 1.0000     0. 
  -4  -6  -1   4173.27  395.81  0. 1.0000     0. 
   4   6   1   4807.47  434.60  0. 1.0000     0. 
  -4  -6   1   4207.24  402.89  0. 1.0000     0. 
   4  -6   2  12557.00  817.10  0. 1.0000     0. 
  -4   6   2  12483.00  772.93  0. 1.0000     0. 
   4   6  -2  12726.00  837.20  0. 1.0000     0. 
  -4  -6  -2  12424.00  811.72  0. 1.0000     0. 
   4   6   2  12653.00  805.49  0. 1.0000     0. 
  -4  -6   2  12678.00  853.34  0. 1.0000     0. 
   4  -6  -2  12780.00  873.16  0. 1.0000     0. 
  -4   6  -2  12333.00  731.60  0. 1.0000     0. 
   4  -6   3  95724.99 5294.45  0. 1.0000     0. 
  -4   6   3  91647.99 5056.62  0. 1.0000     0. 
   4   6  -3 100453.00 5588.90  0. 1.0000     0. 
  -4  -6  -3  95951.00 5308.60  0. 1.0000     0. 
   4   6   3  96234.01 5325.59  0. 1.0000     0. 
  -4  -6   3  96376.01 5376.55  0. 1.0000     0. 
   4  -6  -3  93375.01 5260.47  0. 1.0000     0. 
  -4   6  -3  99349.01 5450.16  0. 1.0000     0. 
   4  -6   4 190289.0010413.00  0. 1.0000     0. 
  -4   6   4 190628.0210444.00  0. 1.0000     0. 
   4   6  -4 194393.9810711.00  0. 1.0000     0. 
  -4  -6  -4 186608.0010226.00  0. 1.0000     0. 
   4   6   4 208975.0211469.00  0. 1.0000     0. 
  -4  -6   4 186098.0010232.00  0. 1.0000     0. 
   4  -6  -4 196857.0010934.00  0. 1.0000     0. 
  -4   6  -4 197111.9810764.00  0. 1.0000     0. 
  -4   6   5 128001.00 7055.49  0. 1.0000     0. 
   4   6  -5 119110.99 6616.64  0. 1.0000     0. 
  -4  -6  -5 125226.00 6888.44  0. 1.0000     0. 
  -4  -6   5 120696.00 6710.07  0. 1.0000     0. 
   4  -6  -5 135023.02 7607.58  0. 1.0000     0. 
  -4   6  -5 126246.00 6913.92  0. 1.0000     0. 
   4  -6   6  11976.00  713.48  0. 1.0000     0. 
  -4   6   6  12933.00  856.45  0. 1.0000     0. 
   4   6   6  10142.00  732.45  0. 1.0000     0. 
  -4  -6   6  10586.00  805.78  0. 1.0000     0. 
   4  -6  -6  13301.00 1095.70  0. 1.0000     0. 
   4   6  -7   1770.67  271.35  0. 1.0000     0. 
  -4  -6  -7   1584.94  281.26  0. 1.0000     0. 
   4   6   7   1387.03  279.79  0. 1.0000     0. 
  -4  -6   7   1790.77  364.10  0. 1.0000     0. 
   4  -6  -7   1816.53  637.88  0. 1.0000     0. 
  -4   6   8   5600.22  528.88  0. 1.0000     0. 
   4   6  -8   6857.30  524.35  0. 1.0000     0. 
  -4  -6  -8   5339.75  433.18  0. 1.0000     0. 
   4   6   8   5962.62  473.10  0. 1.0000     0. 
  -4  -6   8   5767.27  545.58  0. 1.0000     0. 
  -4   6   9   7321.62  636.47  0. 1.0000     0. 
   4   6  -9   7163.07  524.91  0. 1.0000     0. 
  -4  -6  -9   6217.43  467.72  0. 1.0000     0. 
   4   6   9   7046.99  543.03  0. 1.0000     0. 
  -4  -6   9   6990.37  576.73  0. 1.0000     0. 
   4  -6  -9   6494.90  848.24  0. 1.0000     0. 
  -4   6  10   4739.52  558.89  0. 1.0000     0. 
   4   6 -10   4915.06  368.63  0. 1.0000     0. 
   4   6  10   4295.01  385.05  0. 1.0000     0. 
  -4  -6  10   4266.70  433.75  0. 1.0000     0. 
   4  -6 -10   4546.99  793.32  0. 1.0000     0. 
  -4   6  11   5721.96  667.61  0. 1.0000     0. 
  -4  -6 -11   3994.90  593.15  0. 1.0000     0. 
   4   6  11   5000.00  409.68  0. 1.0000     0. 
  -4  -6  11   4719.70  448.47  0. 1.0000     0. 
  -4  -6 -12  15929.00 1349.66  0. 1.0000     0. 
   4   6  12  18106.00 1090.32  0. 1.0000     0. 
  -4  -6  12  15781.00 1021.80  0. 1.0000     0. 
  -4  -6  12  17361.00 1366.65  0. 1.0000     0. 
   4   7   0  22002.00 1359.29  0. 1.0000     0. 
   4  -7   0  24533.00 1507.36  0. 1.0000     0. 
  -4   7   0  23446.00 1348.53  0. 1.0000     0. 
   4  -7   1  19516.00 1188.28  0. 1.0000     0. 
  -4   7   1  18468.00 1093.71  0. 1.0000     0. 
  -4  -7  -1  17823.00 1133.07  0. 1.0000     0. 
   4   7   1  17715.00 1103.62  0. 1.0000     0. 
  -4  -7   1  18403.00 1172.14  0. 1.0000     0. 
   4  -7  -1  19652.00 1295.58  0. 1.0000     0. 
  -4   7  -1  17995.00 1056.34  0. 1.0000     0. 
   4  -7   2  11189.00  717.44  0. 1.0000     0. 
  -4   7   2  10988.00  706.11  0. 1.0000     0. 
   4   7  -2  11614.00  803.51  0. 1.0000     0. 
  -4  -7  -2  11602.00  792.18  0. 1.0000     0. 
   4   7   2  11741.00  781.71  0. 1.0000     0. 
  -4  -7   2  11181.00  797.85  0. 1.0000     0. 
  -4   7  -2  12166.00  744.62  0. 1.0000     0. 
  -4   7   3  43063.00 2436.58  0. 1.0000     0. 
   4   7  -3  45413.00 2628.25  0. 1.0000     0. 
  -4  -7  -3  42639.00 2438.56  0. 1.0000     0. 
   4   7   3  45980.00 2620.33  0. 1.0000     0. 
  -4  -7   3  42186.00 2454.41  0. 1.0000     0. 
   4  -7  -3  43686.00 2577.01  0. 1.0000     0. 
  -4   7  -3  46999.00 2627.12  0. 1.0000     0. 
  -4   7   4  97197.01 5385.05  0. 1.0000     0. 
   4   7  -4 107530.99 6002.26  0. 1.0000     0. 
  -4  -7  -4  95442.00 5297.28  0. 1.0000     0. 
   4   7   4 104332.00 5812.56  0. 1.0000     0. 
  -4  -7   4  99434.00 5563.41  0. 1.0000     0. 
   4  -7  -4  90940.00 5147.22  0. 1.0000     0. 
  -4   7  -4  98386.01 5407.70  0. 1.0000     0. 
   4  -7   5  38986.00 2216.59  0. 1.0000     0. 
  -4   7   5  46206.00 2635.61  0. 1.0000     0. 
   4   7  -5  45272.00 2616.93  0. 1.0000     0. 
  -4  -7  -5  44904.00 2555.77  0. 1.0000     0. 
  -4  -7   5  44536.00 2615.80  0. 1.0000     0. 
   4  -7  -5  45017.00 2771.51  0. 1.0000     0. 
   4  -7   6   5956.96  410.82  0. 1.0000     0. 
  -4   7   6   6231.59  539.64  0. 1.0000     0. 
   4   7  -6   4991.50  422.99  0. 1.0000     0. 
   4   7   6   5212.34  529.45  0. 1.0000     0. 
   4  -7  -6   7021.51  862.97  0. 1.0000     0. 
  -4   7  -6   5206.68  326.73  0. 1.0000     0. 
   4  -7   7    669.87  156.79  0. 1.0000     0. 
  -4   7   7    926.67  406.00  0. 1.0000     0. 
   4   7  -7    786.52  220.67  0. 1.0000     0. 
  -4  -7  -7    745.19  307.76  0. 1.0000     0. 
   4   7   7    993.49  293.60  0. 1.0000     0. 
  -4  -7   7    995.75  258.95  0. 1.0000     0. 
   4  -7  -7   1078.71  666.48  0. 1.0000     0. 
  -4   7  -7    961.21   96.97  0. 1.0000     0. 
  -4   7   8   9450.73  764.16  0. 1.0000     0. 
   4   7  -8   9060.01  618.06  0. 1.0000     0. 
  -4  -7  -8   8369.19  606.17  0. 1.0000     0. 
   4   7   8   9470.55  690.83  0. 1.0000     0. 
  -4  -7   8   9057.18  656.57  0. 1.0000     0. 
  -4   7   9  16359.00 1140.15  0. 1.0000     0. 
   4   7  -9  15054.00  940.26  0. 1.0000     0. 
  -4  -7  -9  14295.00  901.75  0. 1.0000     0. 
  -4  -7   9  13802.00  908.55  0. 1.0000     0. 
   4  -7  -9  16152.00 1544.45  0. 1.0000     0. 
  -4   7  10   6616.64  727.91  0. 1.0000     0. 
   4   7 -10   6494.90  473.10  0. 1.0000     0. 
  -4  -7 -10   4915.06  616.08  0. 1.0000     0. 
   4   7  10   4920.72  437.15  0. 1.0000     0. 
  -4  -7  10   5433.18  459.80  0. 1.0000     0. 
   4   7  11   5849.37  496.32  0. 1.0000     0. 
  -4  -7  11   5461.49  456.40  0. 1.0000     0. 
   4   7 -12  14519.00  892.69  0. 1.0000     0. 
   4   8   0 120385.01 6707.24  0. 1.0000     0. 
  -4  -8   0 118488.00 6593.99  0. 1.0000     0. 
   4  -8   0 117695.00 6520.38  0. 1.0000     0. 
  -4   8   0 117837.01 6486.40  0. 1.0000     0. 
   4  -8   1  55776.00 3154.02  0. 1.0000     0. 
  -4   8   1  53114.00 2978.48  0. 1.0000     0. 
   4   8  -1  54587.00 3142.69  0. 1.0000     0. 
  -4  -8  -1  53850.00 3083.24  0. 1.0000     0. 
   4   8   1  51444.00 2933.18  0. 1.0000     0. 
  -4  -8   1  55804.00 3199.32  0. 1.0000     0. 
   4  -8  -1  55493.00 3193.65  0. 1.0000     0. 
  -4   8  -1  55917.00 3120.04  0. 1.0000     0. 
   4  -8   2  10561.00  737.83  0. 1.0000     0. 
  -4   8   2   9609.28  659.68  0. 1.0000     0. 
   4   8  -2   9549.82  733.29  0. 1.0000     0. 
  -4  -8  -2   9626.26  708.10  0. 1.0000     0. 
   4   8   2   9521.51  688.56  0. 1.0000     0. 
  -4  -8   2   9660.24  731.03  0. 1.0000     0. 
   4  -8  -2  10450.00  900.34  0. 1.0000     0. 
  -4   8  -2  10654.00  675.54  0. 1.0000     0. 
  -4   8   3   2919.02  345.13  0. 1.0000     0. 
   4   8  -3   3326.72  383.07  0. 1.0000     0. 
  -4  -8  -3   2540.48  363.53  0. 1.0000     0. 
   4   8   3   3476.78  419.31  0. 1.0000     0. 
  -4  -8   3   2834.09  393.54  0. 1.0000     0. 
  -4   8  -3   3227.63  294.73  0. 1.0000     0. 
   4  -8   4   4595.13  415.91  0. 1.0000     0. 
  -4   8   4   4815.96  461.21  0. 1.0000     0. 
   4   8  -4   5580.40  493.49  0. 1.0000     0. 
  -4  -8  -4   4889.58  493.20  0. 1.0000     0. 
   4   8   4   5212.34  503.11  0. 1.0000     0. 
  -4  -8   4   4866.93  508.78  0. 1.0000     0. 
   4  -8  -4   4309.17  601.92  0. 1.0000     0. 
  -4   8   5   4048.69  438.28  0. 1.0000     0. 
   4   8  -5   4804.64  474.80  0. 1.0000     0. 
  -4  -8  -5   4464.89  492.92  0. 1.0000     0. 
   4  -8  -5   3706.11  654.02  0. 1.0000     0. 
  -4   8  -5   4450.73  355.89  0. 1.0000     0. 
   4   8   6   2344.28  443.37  0. 1.0000     0. 
  -4  -8   6   2231.31  375.71  0. 1.0000     0. 
   4  -8  -6   1923.84  732.16  0. 1.0000     0. 
  -4   8  -6   2441.67  191.93  0. 1.0000     0. 
  -4   8   7  12633.00  900.06  0. 1.0000     0. 
   4   8  -7  12446.00  842.86  0. 1.0000     0. 
  -4  -8  -7  12200.00  845.70  0. 1.0000     0. 
   4   8   7  13641.00  972.82  0. 1.0000     0. 
  -4  -8   7  12656.00  889.86  0. 1.0000     0. 
   4  -8  -7  12463.00 1410.53  0. 1.0000     0. 
  -4   8  -7  12421.00  707.53  0. 1.0000     0. 
   4  -8   8  30323.00 1749.15  0. 1.0000     0. 
   4   8  -8  33607.00 1962.63  0. 1.0000     0. 
  -4  -8  -8  34994.00 2032.84  0. 1.0000     0. 
   4   8   8  31370.00 1872.03  0. 1.0000     0. 
  -4  -8   8  31653.00 1887.03  0. 1.0000     0. 
   4  -8  -8  32361.00 2536.52  0. 1.0000     0. 
  -4   8  -8  27959.00 1547.56  0. 1.0000     0. 
   4   8  -9  22282.00 1329.27  0. 1.0000     0. 
  -4  -8  -9  24771.00 1485.28  0. 1.0000     0. 
   4   8 -10   5031.14  393.54  0. 1.0000     0. 
  -4  -8 -10   4402.60  648.64  0. 1.0000     0. 
   4   8  10   5229.33  505.66  0. 1.0000     0. 
  -4  -8  10   4646.09  449.32  0. 1.0000     0. 
   4   8 -11    682.62  187.12  0. 1.0000     0. 
  -4  -9   0  54530.00 3162.51  0. 1.0000     0. 
   4  -9   0  49943.00 2885.05  0. 1.0000     0. 
  -4   9   0  54672.00 3074.74  0. 1.0000     0. 
   4  -9   1  30719.00 1856.17  0. 1.0000     0. 
  -4   9   1  31399.00 1828.14  0. 1.0000     0. 
   4   9  -1  32814.00 1995.47  0. 1.0000     0. 
   4   9   1  30606.00 1831.54  0. 1.0000     0. 
  -4  -9   1  31285.00 1901.75  0. 1.0000     0. 
   4  -9  -1  28539.00 1757.93  0. 1.0000     0. 
  -4   9  -1  31484.00 1814.55  0. 1.0000     0. 
  -4   9   2   4068.51  410.53  0. 1.0000     0. 
   4   9  -2   4334.65  492.36  0. 1.0000     0. 
  -4  -9  -2   3513.59  456.96  0. 1.0000     0. 
   4   9   2   3895.81  448.75  0. 1.0000     0. 
  -4  -9   2   3805.21  473.95  0. 1.0000     0. 
   4  -9  -2   4133.63  661.66  0. 1.0000     0. 
  -4   9  -2   3989.24  341.45  0. 1.0000     0. 
   4  -9   3   1732.73  378.54  0. 1.0000     0. 
  -4   9   3   1452.15  340.60  0. 1.0000     0. 
   4   9  -3   1303.79  315.40  0. 1.0000     0. 
  -4  -9  -3   1460.36  373.44  0. 1.0000     0. 
   4   9   3   1230.18  333.24  0. 1.0000     0. 
  -4  -9   3   1351.36  362.12  0. 1.0000     0. 
   4  -9  -3   1480.46  605.32  0. 1.0000     0. 
   4  -9   4   6979.04  585.22  0. 1.0000     0. 
  -4   9   4   6132.50  566.53  0. 1.0000     0. 
   4   9  -4   6166.47  561.44  0. 1.0000     0. 
  -4  -9  -4   5903.17  567.67  0. 1.0000     0. 
   4   9   4   5240.65  521.80  0. 1.0000     0. 
  -4  -9   4   5761.60  555.21  0. 1.0000     0. 
  -4   9  -4   6302.37  421.57  0. 1.0000     0. 
   4  -9   5   7327.29  567.38  0. 1.0000     0. 
  -4   9   5   6384.48  582.67  0. 1.0000     0. 
   4   9  -5   6687.42  601.64  0. 1.0000     0. 
  -4  -9  -5   6387.31  611.55  0. 1.0000     0. 
   4   9   5   6537.37  720.84  0. 1.0000     0. 
  -4  -9   5   6531.70  612.12  0. 1.0000     0. 
   4  -9  -5   7341.44  927.24  0. 1.0000     0. 
  -4   9  -5   7211.20  470.55  0. 1.0000     0. 
  -4   9   6   5999.43  583.80  0. 1.0000     0. 
   4   9  -6   6877.12  585.79  0. 1.0000     0. 
   4   9   6   6729.89  699.04  0. 1.0000     0. 
  -4  -9   6   5911.66  550.11  0. 1.0000     0. 
   4  -9  -6   6630.80 1104.47  0. 1.0000     0. 
  -4   9  -6   6206.11  392.98  0. 1.0000     0. 
   4  -9   7   8643.82  646.94  0. 1.0000     0. 
  -4   9   7   9394.10  778.88  0. 1.0000     0. 
   4   9  -7  11574.00  783.97  0. 1.0000     0. 
  -4  -9  -7  10226.00  805.49  0. 1.0000     0. 
   4   9   7  10374.00  864.38  0. 1.0000     0. 
  -4  -9   7   8813.69  693.94  0. 1.0000     0. 
  -4   9  -7   9968.85  577.58  0. 1.0000     0. 
   4   9  -8  16642.00 1045.30  0. 1.0000     0. 
  -4  -9  -8  14907.00 1025.20  0. 1.0000     0. 
   4   9   8  15025.00 1097.68  0. 1.0000     0. 
  -4   9  -8  14864.00  829.56  0. 1.0000     0. 
   4   9  -9   8986.40  614.66  0. 1.0000     0. 
  -4  -9   9   7415.05  611.55  0. 1.0000     0. 
   4  10   0   3267.27  480.18  0. 1.0000     0. 
  -4 -10   0   2695.07  452.43  0. 1.0000     0. 
   4 -10   0   3117.21  567.10  0. 1.0000     0. 
  -4  10   0   3493.77  388.73  0. 1.0000     0. 
   4 -10   1   1106.17  477.35  0. 1.0000     0. 
  -4  10   1   1579.56  321.35  0. 1.0000     0. 
   4  10  -1   1442.81  372.03  0. 1.0000     0. 
  -4 -10  -1   2193.37  441.11  0. 1.0000     0. 
   4  10   1   1601.36  391.56  0. 1.0000     0. 
  -4 -10   1   1300.68  417.61  0. 1.0000     0. 
   4 -10  -1   1345.13  468.86  0. 1.0000     0. 
  -4  10  -1   1430.92  268.18  0. 1.0000     0. 
   4 -10   2   2467.44  504.53  0. 1.0000     0. 
  -4  10   2   2441.96  386.18  0. 1.0000     0. 
   4  10  -2   2224.23  391.85  0. 1.0000     0. 
  -4 -10  -2   1967.16  436.58  0. 1.0000     0. 
   4  10   2   2008.49  407.70  0. 1.0000     0. 
  -4 -10   2   2385.33  444.79  0. 1.0000     0. 
   4 -10  -2   2927.52  646.38  0. 1.0000     0. 
   4 -10   3  12715.00  937.43  0. 1.0000     0. 
  -4  10   3  13488.00  939.41  0. 1.0000     0. 
   4  10  -3  11761.00  834.94  0. 1.0000     0. 
  -4 -10  -3  12256.00  930.07  0. 1.0000     0. 
   4  10   3  11809.00  879.10  0. 1.0000     0. 
  -4 -10   3  12268.00  926.95  0. 1.0000     0. 
   4 -10  -3  13196.00 1279.44  0. 1.0000     0. 
  -4  10  -3  13083.00  830.12  0. 1.0000     0. 
   4 -10   4  30323.00 1855.60  0. 1.0000     0. 
  -4  10   4  28681.00 1813.14  0. 1.0000     0. 
   4  10  -4  24567.00 1563.42  0. 1.0000     0. 
  -4 -10  -4  27302.00 1719.42  0. 1.0000     0. 
   4  10   4  25838.00 1618.34  0. 1.0000     0. 
  -4 -10   4  25538.00 1616.93  0. 1.0000     0. 
   4 -10  -4  30464.00 2210.93  0. 1.0000     0. 
  -4  10  -4  27441.00 1566.82  0. 1.0000     0. 
   4 -10   5  16937.00 1161.38  0. 1.0000     0. 
  -4  10   5  20963.00 1373.16  0. 1.0000     0. 
   4  10  -5  18021.00 1200.45  0. 1.0000     0. 
  -4 -10  -5  18516.00 1288.79  0. 1.0000     0. 
   4  10   5  17240.00 1179.22  0. 1.0000     0. 
  -4 -10   5  17823.00 1196.49  0. 1.0000     0. 
  -4  10  -5  17786.00 1018.69  0. 1.0000     0. 
   4 -10   6   3207.81  440.54  0. 1.0000     0. 
   4  10  -6   3720.27  406.85  0. 1.0000     0. 
   4  10   6   2989.80  578.99  0. 1.0000     0. 
  -4 -10   6   3748.58  475.65  0. 1.0000     0. 
  -4  10  -6   3652.32  265.43  0. 1.0000     0. 
   4 -10   7    787.94  441.96  0. 1.0000     0. 
   4  10  -7   1109.85  251.44  0. 1.0000     0. 
  -4  10  -7    996.60  111.69  0. 1.0000     0. 
   4 -11   0   1456.96  551.24  0. 1.0000     0. 
  -4  11   0   1112.97  289.92  0. 1.0000     0. 
   4 -11   1   1619.19  579.28  0. 1.0000     0. 
  -4  11   1   1180.92  314.83  0. 1.0000     0. 
  -4  11  -1   1398.64  263.62  0. 1.0000     0. 
   4 -11   2   2376.55  537.94  0. 1.0000     0. 
  -4  11   2   2100.79  389.58  0. 1.0000     0. 
   4 -11  -2   2197.05  851.36  0. 1.0000     0. 
  -4  11  -2   2162.23  292.47  0. 1.0000     0. 
   4 -11   3   9510.18  890.71  0. 1.0000     0. 
   4 -11  -3   7613.24 1272.37  0. 1.0000     0. 
  -4  11  -3   8609.84  567.95  0. 1.0000     0. 
   4 -11   4  17715.00 1244.62  0. 1.0000     0. 
  -4  11  -4  16373.00 1019.53  0. 1.0000     0. 
   4 -11   5   8103.05  799.83  0. 1.0000     0. 
  -4  11  -5   7375.42  469.70  0. 1.0000     0. 
  -4  11  -6    748.30  131.96  0. 1.0000     0. 
  -4  12   0   9807.46  735.28  0. 1.0000     0. 
   4 -12   1   5702.15  935.16  0. 1.0000     0. 
  -4  12  -1   5062.28  456.68  0. 1.0000     0. 
   4 -12   2    951.02  588.62  0. 1.0000     0. 
  -4  12  -2   1635.33  259.77  0. 1.0000     0. 
  -4  12  -3    682.62  226.90  0. 1.0000     0. 
   5   0   0      5.03   85.39  0. 1.0000     0. 
  -5   0   0    242.16  135.93  0. 1.0000     0. 
   5   0   1   4832.95  338.33  0. 1.0000     0. 
  -5   0   1   5990.93  441.68  0. 1.0000     0. 
   5   0  -1   4546.99  336.07  0. 1.0000     0. 
  -5   0  -1   5835.21  388.17  0. 1.0000     0. 
  -5   0   2 128794.00 7092.29  0. 1.0000     0. 
  -5   0  -2 123584.00 6775.19  0. 1.0000     0. 
   5   0   3 110022.99 6030.57  0. 1.0000     0. 
  -5   0   3 121998.99 6741.22  0. 1.0000     0. 
   5   0  -3 117610.00 6492.07  0. 1.0000     0. 
   5   0   5 112259.01 6149.48  0. 1.0000     0. 
  -5   0   5 112994.99 6262.73  0. 1.0000     0. 
  -5   0  -5 105067.99 5747.45  0. 1.0000     0. 
   5   0   6  86607.99 4753.68  0. 1.0000     0. 
  -5   0   6  89495.99 5082.10  0. 1.0000     0. 
  -5   0   6  89807.00 5000.00  0. 1.0000     0. 
  -5   0  -6  89268.99 4889.58  0. 1.0000     0. 
  -5   0   7     88.84  159.40  0. 1.0000     0. 
  -5   0   7    604.47  377.12  0. 1.0000     0. 
  -5   0  -7    377.97   70.95  0. 1.0000     0. 
  -5   0   8   3411.66  559.74  0. 1.0000     0. 
  -5   0   8   3904.30  363.82  0. 1.0000     0. 
  -5   0   9   2958.66  358.44  0. 1.0000     0. 
  -5   0   9   2643.83  537.37  0. 1.0000     0. 
  -5   0  10    901.47  441.68  0. 1.0000     0. 
  -5   0  11   7061.15  527.75  0. 1.0000     0. 
  -5   0  11   7947.33  995.75  0. 1.0000     0. 
  -5   0  12   5028.31  748.02  0. 1.0000     0. 
  -5   0  12   4354.47  407.13  0. 1.0000     0. 
   5   1   0     53.06  114.21  0. 1.0000     0. 
  -5  -1   0     -3.78  131.00  0. 1.0000     0. 
  -5   1   0     -9.37  105.58  0. 1.0000     0. 
  -5   1   0     27.12  119.73  0. 1.0000     0. 
  -5   1   1  20159.00 1177.24  0. 1.0000     0. 
  -5   1   1  19414.00 1140.43  0. 1.0000     0. 
   5   1  -1  19807.00 1177.52  0. 1.0000     0. 
  -5  -1  -1  20450.00 1181.20  0. 1.0000     0. 
   5   1   1  19873.00 1162.23  0. 1.0000     0. 
  -5  -1   1  20065.00 1187.71  0. 1.0000     0. 
  -5   1  -1  19720.00 1128.82  0. 1.0000     0. 
  -5   1  -1  19309.00 1125.42  0. 1.0000     0. 
  -5   1   2   3318.23  340.88  0. 1.0000     0. 
   5   1  -2   3510.76  318.23  0. 1.0000     0. 
  -5  -1  -2   3340.88  251.93  0. 1.0000     0. 
  -5  -1   2   3660.81  323.89  0. 1.0000     0. 
  -5   1  -2   3168.17  235.73  0. 1.0000     0. 
  -5   1   3  40657.00 2309.45  0. 1.0000     0. 
  -5   1   3  34655.00 2032.56  0. 1.0000     0. 
   5   1  -3  39354.00 2255.94  0. 1.0000     0. 
   5   1   3  38448.00 2156.28  0. 1.0000     0. 
  -5  -1   3  40770.00 2359.28  0. 1.0000     0. 
  -5   1  -3  32220.00 1791.05  0. 1.0000     0. 
  -5   1  -3  35221.00 1955.83  0. 1.0000     0. 
  -5   1   4   2739.80  282.98  0. 1.0000     0. 
   5   1  -4   2169.87  240.03  0. 1.0000     0. 
  -5   1   5  12276.00  918.74  0. 1.0000     0. 
  -5  -1  -5  13596.00  781.14  0. 1.0000     0. 
   5   1   5  14901.00  865.51  0. 1.0000     0. 
  -5  -1   5  15747.00 1011.89  0. 1.0000     0. 
  -5   1  -5  14312.00  798.98  0. 1.0000     0. 
  -5   1   6   8674.96  740.94  0. 1.0000     0. 
  -5   1   6   7528.31  545.30  0. 1.0000     0. 
   5   1  -6   7239.52  507.08  0. 1.0000     0. 
  -5  -1  -6   7483.00  441.68  0. 1.0000     0. 
   5   1   6   7318.79  451.02  0. 1.0000     0. 
  -5  -1   6   8111.54  624.29  0. 1.0000     0. 
  -5   1   7   4674.40  399.77  0. 1.0000     0. 
  -5   1   7   4309.17  507.08  0. 1.0000     0. 
  -5  -1  -7   4377.12  272.57  0. 1.0000     0. 
   5   1   7   4365.79  283.04  0. 1.0000     0. 
  -5  -1   7   3943.94  433.46  0. 1.0000     0. 
  -5  -1   7   4838.61  442.81  0. 1.0000     0. 
  -5   1   8  11651.00  884.20  0. 1.0000     0. 
  -5  -1  -8  11546.00  680.07  0. 1.0000     0. 
   5   1   8   8632.49  503.96  0. 1.0000     0. 
  -5  -1   8   9776.32  724.52  0. 1.0000     0. 
  -5  -1   8  11302.00  923.27  0. 1.0000     0. 
  -5   1   9   1707.81  489.24  0. 1.0000     0. 
  -5  -1  -9   1718.57  171.97  0. 1.0000     0. 
   5   1   9   2770.67  173.47  0. 1.0000     0. 
  -5  -1   9   3473.95  385.62  0. 1.0000     0. 
  -5   1  10   2414.78  564.27  0. 1.0000     0. 
  -5   1  10   2202.43  297.85  0. 1.0000     0. 
  -5  -1  10   2408.26  312.29  0. 1.0000     0. 
  -5   1  11   2729.33  310.59  0. 1.0000     0. 
  -5  -1  11   2507.64  328.43  0. 1.0000     0. 
  -5  -1  11   1487.26  595.98  0. 1.0000     0. 
  -5   1  12   1577.29  625.42  0. 1.0000     0. 
  -5   1  12   1499.43  248.16  0. 1.0000     0. 
  -5  -1  12   1446.77  296.71  0. 1.0000     0. 
  -5  -1  12   1100.23  665.91  0. 1.0000     0. 
  -5   1  13   -149.07  652.32  0. 1.0000     0. 
  -5   1  13    325.59  220.67  0. 1.0000     0. 
  -5  -1  13     97.25  706.11  0. 1.0000     0. 
  -5  -1  13    174.80  198.50  0. 1.0000     0. 
   5   2   0     16.64  143.54  0. 1.0000     0. 
  -5   2   0    278.03  109.57  0. 1.0000     0. 
  -5   2   0    136.47  150.09  0. 1.0000     0. 
  -5   2   1 156200.00 8570.21  0. 1.0000     0. 
  -5   2   1 141449.02 7788.78  0. 1.0000     0. 
  -5  -2  -1 144054.00 7890.71  0. 1.0000     0. 
   5   2   1 164468.00 9026.04  0. 1.0000     0. 
  -5  -2   1 148613.00 8176.66  0. 1.0000     0. 
  -5   2  -1 147395.00 8066.24  0. 1.0000     0. 
  -5   2  -1 138250.00 7570.77  0. 1.0000     0. 
  -5   2   2  84370.99 4685.73  0. 1.0000     0. 
   5   2  -2  85645.00 4759.34  0. 1.0000     0. 
  -5  -2  -2  84315.00 4668.74  0. 1.0000     0. 
   5   2   2  83324.00 4606.45  0. 1.0000     0. 
  -5  -2   2  85504.00 4767.83  0. 1.0000     0. 
  -5   2   3   7270.66  505.38  0. 1.0000     0. 
   5   2  -3   7525.47  547.85  0. 1.0000     0. 
  -5  -2  -3   8915.62  567.10  0. 1.0000     0. 
   5   2   3   8199.31  541.62  0. 1.0000     0. 
  -5  -2   3   8519.24  595.98  0. 1.0000     0. 
  -5   2  -3   7927.51  483.30  0. 1.0000     0. 
  -5   2  -3  10130.00  591.45  0. 1.0000     0. 
  -5   2   4   3918.46  345.41  0. 1.0000     0. 
   5   2  -4   3895.81  368.91  0. 1.0000     0. 
  -5  -2  -4   3018.12  253.68  0. 1.0000     0. 
   5   2   4   3502.26  278.57  0. 1.0000     0. 
  -5  -2   4   4093.99  385.62  0. 1.0000     0. 
  -5   2  -4   2787.09  199.94  0. 1.0000     0. 
  -5   2  -4   3159.68  206.00  0. 1.0000     0. 
  -5   2   5   1574.18  298.13  0. 1.0000     0. 
   5   2  -5   2152.04  272.45  0. 1.0000     0. 
  -5  -2  -5   1895.81  186.61  0. 1.0000     0. 
   5   2   5   2231.31  209.43  0. 1.0000     0. 
  -5  -2   5   2120.33  297.00  0. 1.0000     0. 
  -5   2   6  21931.00 1340.88  0. 1.0000     0. 
   5   2  -6  21305.00 1276.90  0. 1.0000     0. 
  -5  -2  -6  21744.00 1221.40  0. 1.0000     0. 
   5   2   6  20764.00 1174.97  0. 1.0000     0. 
  -5  -2   6  22528.00 1364.95  0. 1.0000     0. 
  -5   2   7  59739.00 3386.18  0. 1.0000     0. 
  -5   2   7  68431.00 3958.09  0. 1.0000     0. 
   5   2  -7  53369.00 3009.62  0. 1.0000     0. 
  -5  -2  -7  63788.00 3499.43  0. 1.0000     0. 
   5   2   7  56710.00 3131.37  0. 1.0000     0. 
  -5  -2   7  58296.00 3304.07  0. 1.0000     0. 
  -5   2   8   7967.15  662.80  0. 1.0000     0. 
  -5  -2  -8   6480.74  394.11  0. 1.0000     0. 
  -5   2   9  11934.00  939.69  0. 1.0000     0. 
  -5  -2  -9  11523.00  703.57  0. 1.0000     0. 
   5   2   9  16096.00  921.01  0. 1.0000     0. 
  -5  -2   9  17106.00 1101.07  0. 1.0000     0. 
  -5   2  10  27288.00 1640.15  0. 1.0000     0. 
  -5   2  10  30832.00 2006.51  0. 1.0000     0. 
  -5  -2 -10  29502.00 1667.04  0. 1.0000     0. 
   5   2  10  27041.00 1509.06  0. 1.0000     0. 
  -5  -2  10  24955.00 1781.43  0. 1.0000     0. 
  -5  -2  10  28766.00 1723.38  0. 1.0000     0. 
  -5   2  11    618.63  179.98  0. 1.0000     0. 
  -5  -2 -11   1224.80  217.07  0. 1.0000     0. 
  -5  -2  11    643.54  637.32  0. 1.0000     0. 
  -5  -2  11    789.07  228.43  0. 1.0000     0. 
   5   2  12   3108.72  196.29  0. 1.0000     0. 
   5   2  12   3541.90  211.04  0. 1.0000     0. 
  -5  -2  12   1447.62  750.57  0. 1.0000     0. 
  -5  -2  12   3558.89  378.54  0. 1.0000     0. 
  -5  -2  13    208.55  209.71  0. 1.0000     0. 
   5   3   0     69.39  139.58  0. 1.0000     0. 
  -5  -3   0     55.04  130.32  0. 1.0000     0. 
  -5   3   0     -3.24  161.41  0. 1.0000     0. 
  -5   3   0     51.25   79.42  0. 1.0000     0. 
  -5   3   1  34994.00 1999.43  0. 1.0000     0. 
   5   3  -1  43233.00 2462.06  0. 1.0000     0. 
  -5  -3  -1  37797.00 2161.38  0. 1.0000     0. 
   5   3   1  39807.00 2276.89  0. 1.0000     0. 
  -5  -3   1  36410.00 2063.98  0. 1.0000     0. 
  -5   3  -1  39807.00 2227.35  0. 1.0000     0. 
  -5   3   2  16370.00  999.72  0. 1.0000     0. 
  -5   3   2  19442.00 1141.28  0. 1.0000     0. 
   5   3  -2  19032.00 1170.72  0. 1.0000     0. 
  -5  -3  -2  16903.00 1027.75  0. 1.0000     0. 
  -5  -3   2  17033.00 1051.81  0. 1.0000     0. 
  -5   3  -2  14626.00  841.17  0. 1.0000     0. 
  -5   3  -2  16922.00  969.99  0. 1.0000     0. 
  -5   3   3  14969.00  912.23  0. 1.0000     0. 
  -5   3   3  13933.00  878.54  0. 1.0000     0. 
   5   3  -3  14287.00  926.95  0. 1.0000     0. 
  -5   3  -3  14502.00  812.57  0. 1.0000     0. 
  -5   3  -3  12475.00  720.84  0. 1.0000     0. 
  -5   3   4   6613.81  517.84  0. 1.0000     0. 
  -5   3   4   6392.97  462.34  0. 1.0000     0. 
   5   3   4   6112.68  434.88  0. 1.0000     0. 
  -5  -3   4   6359.00  515.29  0. 1.0000     0. 
  -5   3  -4   5469.98  329.56  0. 1.0000     0. 
  -5   3  -4   6780.85  388.73  0. 1.0000     0. 
  -5   3   5   2637.03  271.71  0. 1.0000     0. 
  -5   3   5   1824.18  322.48  0. 1.0000     0. 
   5   3  -5   2709.79  299.55  0. 1.0000     0. 
   5   3   5   2138.45  222.34  0. 1.0000     0. 
  -5  -3   5   2227.63  299.55  0. 1.0000     0. 
  -5   3   6    620.61  319.65  0. 1.0000     0. 
   5   3  -6    -18.40  143.04  0. 1.0000     0. 
   5   3   6     95.19  144.28  0. 1.0000     0. 
  -5  -3   6    113.48  208.13  0. 1.0000     0. 
  -5   3   7   4433.74  532.56  0. 1.0000     0. 
  -5   3   7   5076.44  413.36  0. 1.0000     0. 
   5   3  -7   4535.67  351.64  0. 1.0000     0. 
   5   3   7   4830.12  358.72  0. 1.0000     0. 
  -5  -3   7   4818.79  431.77  0. 1.0000     0. 
  -5   3   8   3513.59  352.77  0. 1.0000     0. 
   5   3  -8   3165.34  311.44  0. 1.0000     0. 
  -5  -3   8   3808.04  386.47  0. 1.0000     0. 
  -5   3   9  10914.00  756.51  0. 1.0000     0. 
   5   3  -9  10963.00  711.78  0. 1.0000     0. 
  -5  -3   9   7734.99  586.92  0. 1.0000     0. 
  -5   3  10   4456.39  413.93  0. 1.0000     0. 
  -5   3  10   4093.99  706.11  0. 1.0000     0. 
  -5  -3 -10   3459.79  352.49  0. 1.0000     0. 
  -5  -3  10   3292.75  594.56  0. 1.0000     0. 
  -5  -3  10   3986.41  402.89  0. 1.0000     0. 
  -5   3  11   1431.77  440.54  0. 1.0000     0. 
  -5  -3 -11    930.63  276.13  0. 1.0000     0. 
  -5  -3  11   1394.11  271.69  0. 1.0000     0. 
  -5  -3  11   1260.47  656.29  0. 1.0000     0. 
  -5   3  12   2778.88  320.50  0. 1.0000     0. 
  -5   3  12   2288.50  430.07  0. 1.0000     0. 
  -5  -3 -12   2020.10  366.08  0. 1.0000     0. 
  -5  -3  12   2300.68  330.69  0. 1.0000     0. 
  -5  -3  12   1065.68  817.95  0. 1.0000     0. 
  -5  -3  13     -5.66  208.04  0. 1.0000     0. 
  -5  -3  13    -65.83 1067.67  0. 1.0000     0. 
   5   4   0     43.18  198.30  0. 1.0000     0. 
  -5  -4   0     -3.85  167.84  0. 1.0000     0. 
  -5   4   0   -106.06  110.48  0. 1.0000     0. 
  -5   4   1   4130.80  326.16  0. 1.0000     0. 
  -5   4   1   3422.99  248.36  0. 1.0000     0. 
   5   4  -1   3960.92  394.39  0. 1.0000     0. 
  -5  -4  -1   3063.42  336.35  0. 1.0000     0. 
   5   4   1   3284.25  330.69  0. 1.0000     0. 
  -5  -4   1   3168.17  343.43  0. 1.0000     0. 
  -5   4  -1   3340.88  236.35  0. 1.0000     0. 
  -5   4   2  62797.00 3510.76  0. 1.0000     0. 
   5   4  -2  74604.00 4210.08  0. 1.0000     0. 
  -5  -4  -2  66280.01 3697.62  0. 1.0000     0. 
   5   4   2  71631.00 3989.24  0. 1.0000     0. 
  -5  -4   2  63788.00 3567.38  0. 1.0000     0. 
  -5   4  -2  71801.00 3955.26  0. 1.0000     0. 
  -5   4  -2  68573.00 3759.91  0. 1.0000     0. 
  -5   4   3  78596.01 4430.91  0. 1.0000     0. 
  -5   4   3  77094.99 4278.03  0. 1.0000     0. 
   5   4  -3  73867.01 4156.28  0. 1.0000     0. 
  -5  -4  -3  71489.00 3972.25  0. 1.0000     0. 
  -5  -4   3  67809.00 3791.05  0. 1.0000     0. 
  -5   4  -3  68771.00 3779.72  0. 1.0000     0. 
  -5   4  -3  75990.99 4161.94  0. 1.0000     0. 
  -5   4   4   2087.48  254.53  0. 1.0000     0. 
   5   4  -4   2734.99  327.01  0. 1.0000     0. 
   5   4   4   3069.08  301.53  0. 1.0000     0. 
  -5  -4   4   3275.76  322.48  0. 1.0000     0. 
  -5   4   5  50651.00 2981.31  0. 1.0000     0. 
   5   4  -5  58267.00 3292.75  0. 1.0000     0. 
  -5  -4  -5  50623.00 2818.51  0. 1.0000     0. 
   5   4   5  54870.00 3066.25  0. 1.0000     0. 
  -5  -4   5  52916.00 3015.29  0. 1.0000     0. 
  -5   4  -5  54700.00 3035.10  0. 1.0000     0. 
  -5   4  -5  57050.00 3162.51  0. 1.0000     0. 
  -5   4   6  48443.00 2831.25  0. 1.0000     0. 
   5   4  -6  49236.00 2824.18  0. 1.0000     0. 
  -5  -4  -6  49009.00 2725.08  0. 1.0000     0. 
   5   4   6  48499.00 2701.87  0. 1.0000     0. 
  -5  -4   6  48726.00 2790.77  0. 1.0000     0. 
  -5   4   7    324.18  195.38  0. 1.0000     0. 
   5   4  -7    242.89  167.41  0. 1.0000     0. 
  -5  -4  -7    777.46  200.11  0. 1.0000     0. 
   5   4   7    341.45  158.44  0. 1.0000     0. 
  -5  -4   7    460.93  250.82  0. 1.0000     0. 
  -5   4   8   2580.69  299.55  0. 1.0000     0. 
  -5   4   8   1710.64  294.45  0. 1.0000     0. 
   5   4  -8   2270.10  260.31  0. 1.0000     0. 
  -5  -4  -8   1700.73  219.88  0. 1.0000     0. 
  -5  -4   8   1445.07  282.96  0. 1.0000     0. 
  -5   4   9   1026.05  301.53  0. 1.0000     0. 
  -5   4   9   1196.20  210.67  0. 1.0000     0. 
   5   4   9    958.66  164.78  0. 1.0000     0. 
  -5  -4   9   1132.78  269.54  0. 1.0000     0. 
  -5   4  10   1125.99  225.37  0. 1.0000     0. 
  -5   4  10   1088.33  321.35  0. 1.0000     0. 
   5   4 -10    786.81  181.34  0. 1.0000     0. 
  -5  -4 -10    640.43  312.00  0. 1.0000     0. 
   5   4  10    816.82  160.79  0. 1.0000     0. 
  -5  -4  10    731.03  239.07  0. 1.0000     0. 
  -5   4  11   5430.35  584.37  0. 1.0000     0. 
  -5  -4 -11   4603.62  445.07  0. 1.0000     0. 
  -5  -4  11   4674.40  426.95  0. 1.0000     0. 
  -5  -4  11   3989.24  696.49  0. 1.0000     0. 
  -5  -4 -12   4006.22  512.17  0. 1.0000     0. 
   5   4  12   3332.39  256.43  0. 1.0000     0. 
  -5  -4  12   3080.40  356.17  0. 1.0000     0. 
  -5  -4  12   2412.51  979.05  0. 1.0000     0. 
  -5  -4 -13    285.96  361.55  0. 1.0000     0. 
   5   5   0     41.90  218.32  0. 1.0000     0. 
  -5  -5   0    -60.59  229.08  0. 1.0000     0. 
   5  -5   0    -42.07  218.97  0. 1.0000     0. 
   5  -5   1   1306.91  225.06  0. 1.0000     0. 
  -5   5   1   1482.44  194.62  0. 1.0000     0. 
   5   5  -1   1165.63  264.35  0. 1.0000     0. 
  -5  -5  -1   1461.78  264.27  0. 1.0000     0. 
   5   5   1   1268.69  238.93  0. 1.0000     0. 
  -5  -5   1   1295.30  248.73  0. 1.0000     0. 
   5  -5  -1   1307.47  285.67  0. 1.0000     0. 
  -5   5  -1   1567.67  179.67  0. 1.0000     0. 
   5  -5   2   1764.15  207.62  0. 1.0000     0. 
  -5   5   2   1689.13  196.21  0. 1.0000     0. 
   5   5  -2   2768.97  356.45  0. 1.0000     0. 
  -5  -5  -2   2138.73  295.58  0. 1.0000     0. 
   5   5   2   2746.03  298.70  0. 1.0000     0. 
   5  -5  -2   1830.97  345.98  0. 1.0000     0. 
  -5   5  -2   1936.58  178.54  0. 1.0000     0. 
  -5   5   3  23941.00 1374.57  0. 1.0000     0. 
  -5  -5  -3  25719.00 1509.91  0. 1.0000     0. 
   5   5   3  25844.00 1520.95  0. 1.0000     0. 
  -5  -5   3  26707.00 1646.09  0. 1.0000     0. 
   5  -5  -3  24136.00 1471.69  0. 1.0000     0. 
  -5   5  -3  24623.00 1374.57  0. 1.0000     0. 
  -5   5   4    647.51  190.32  0. 1.0000     0. 
   5   5  -4    507.93  233.01  0. 1.0000     0. 
  -5  -5  -4    579.84  212.23  0. 1.0000     0. 
   5   5   4    558.04  226.81  0. 1.0000     0. 
  -5  -5   4    561.44  219.96  0. 1.0000     0. 
   5  -5  -4    849.38  308.32  0. 1.0000     0. 
  -5   5  -4    550.68  114.86  0. 1.0000     0. 
  -5   5  -4    190.43   71.89  0. 1.0000     0. 
  -5   5   5  15716.00  964.33  0. 1.0000     0. 
  -5  -5  -5  15997.00  965.46  0. 1.0000     0. 
   5   5   5  18817.00 1110.98  0. 1.0000     0. 
  -5  -5   5  18944.00 1165.06  0. 1.0000     0. 
  -5   5  -5  20798.00 1158.55  0. 1.0000     0. 
  -5   5  -5  18301.00 1026.33  0. 1.0000     0. 
  -5   5   6   9150.61  629.10  0. 1.0000     0. 
   5   5  -6   9648.91  663.08  0. 1.0000     0. 
  -5  -5  -6   9040.19  598.24  0. 1.0000     0. 
   5   5   6   9674.40  621.18  0. 1.0000     0. 
  -5  -5   6   9532.83  671.57  0. 1.0000     0. 
   5  -5  -6  10572.00  839.18  0. 1.0000     0. 
  -5   5   7    247.96  200.74  0. 1.0000     0. 
  -5   5   7    300.40  253.99  0. 1.0000     0. 
   5   5  -7   1090.03  226.33  0. 1.0000     0. 
  -5  -5  -7    453.85  212.91  0. 1.0000     0. 
   5   5   7    603.06  199.94  0. 1.0000     0. 
  -5  -5   7    809.17  256.62  0. 1.0000     0. 
  -5   5   8   7446.20  588.34  0. 1.0000     0. 
  -5   5   8   8861.83  639.58  0. 1.0000     0. 
   5   5  -8   7477.34  555.49  0. 1.0000     0. 
  -5  -5  -8   7760.47  530.58  0. 1.0000     0. 
   5   5   8   7542.46  530.01  0. 1.0000     0. 
  -5  -5   8   6862.96  531.43  0. 1.0000     0. 
  -5   5   9   -191.08  288.51  0. 1.0000     0. 
  -5   5   9    125.85  189.98  0. 1.0000     0. 
   5   5  -9    107.19  132.93  0. 1.0000     0. 
   5   5   9    121.04  169.56  0. 1.0000     0. 
  -5  -5   9    142.92  240.35  0. 1.0000     0. 
  -5   5  10    231.17  347.39  0. 1.0000     0. 
  -5   5  10    121.83  166.70  0. 1.0000     0. 
   5   5 -10     61.35  153.76  0. 1.0000     0. 
  -5  -5 -10    -70.55  280.66  0. 1.0000     0. 
   5   5  10     78.17  160.31  0. 1.0000     0. 
  -5  -5  10    202.52  218.66  0. 1.0000     0. 
  -5   5  11   1090.88  521.23  0. 1.0000     0. 
   5   5 -11    946.77  169.68  0. 1.0000     0. 
  -5  -5 -11    532.56  382.79  0. 1.0000     0. 
  -5  -5  11    729.90  224.40  0. 1.0000     0. 
   5   5  12    142.78  142.16  0. 1.0000     0. 
  -5  -5  12    178.79  221.63  0. 1.0000     0. 
  -5  -5  12    620.04  749.72  0. 1.0000     0. 
  -5  -5 -13     40.43  366.93  0. 1.0000     0. 
   5   6   0     13.71  199.91  0. 1.0000     0. 
  -5  -6   0      7.77  238.59  0. 1.0000     0. 
   5  -6   0    -13.57  309.17  0. 1.0000     0. 
  -5   6   0    191.56  162.66  0. 1.0000     0. 
   5  -6   1  45215.00 2603.06  0. 1.0000     0. 
   5   6  -1  46574.00 2682.90  0. 1.0000     0. 
  -5  -6  -1  46234.00 2650.90  0. 1.0000     0. 
   5   6   1  45895.00 2626.55  0. 1.0000     0. 
  -5  -6   1  45583.00 2651.19  0. 1.0000     0. 
   5  -6  -1  46999.00 2745.47  0. 1.0000     0. 
  -5   6  -1  43771.00 2433.75  0. 1.0000     0. 
   5  -6   2  30747.00 1816.82  0. 1.0000     0. 
  -5   6   2  30974.00 1761.32  0. 1.0000     0. 
   5   6  -2  30266.00 1803.79  0. 1.0000     0. 
  -5  -6  -2  30691.00 1800.11  0. 1.0000     0. 
   5   6   2  30209.00 1779.44  0. 1.0000     0. 
  -5  -6   2  29587.00 1797.56  0. 1.0000     0. 
   5  -6  -2  32248.00 1993.49  0. 1.0000     0. 
  -5   6  -2  30351.00 1699.04  0. 1.0000     0. 
   5  -6   3   3771.23  355.61  0. 1.0000     0. 
  -5   6   3   4227.06  366.36  0. 1.0000     0. 
   5   6  -3   3230.46  383.64  0. 1.0000     0. 
  -5  -6  -3   3768.40  380.80  0. 1.0000     0. 
   5   6   3   3086.07  360.98  0. 1.0000     0. 
  -5  -6   3   3437.14  375.14  0. 1.0000     0. 
   5  -6  -3   4473.38  587.20  0. 1.0000     0. 
  -5   6  -3   3793.88  281.68  0. 1.0000     0. 
  -5   6   4    238.87  212.99  0. 1.0000     0. 
   5   6  -4    338.62  231.43  0. 1.0000     0. 
  -5  -6  -4    142.13  245.02  0. 1.0000     0. 
   5   6   4    335.79  239.81  0. 1.0000     0. 
  -5  -6   4    213.39  273.53  0. 1.0000     0. 
   5  -6  -4     -6.30  444.51  0. 1.0000     0. 
  -5   6  -4    239.78  121.26  0. 1.0000     0. 
  -5   6   5    661.10  246.94  0. 1.0000     0. 
   5   6  -5    644.39  240.97  0. 1.0000     0. 
  -5  -6  -5    314.84  223.02  0. 1.0000     0. 
   5   6   5    500.85  211.83  0. 1.0000     0. 
  -5  -6   5    694.79  336.07  0. 1.0000     0. 
   5  -6  -5    760.76  423.56  0. 1.0000     0. 
  -5   6  -5    447.62  102.69  0. 1.0000     0. 
  -5   6   6   7281.99  568.23  0. 1.0000     0. 
   5   6  -6   7389.57  578.42  0. 1.0000     0. 
  -5  -6  -6   7361.26  529.45  0. 1.0000     0. 
   5   6   6   7281.99  524.07  0. 1.0000     0. 
  -5  -6   6   7542.46  663.93  0. 1.0000     0. 
   5  -6  -6   6432.61  675.54  0. 1.0000     0. 
  -5   6  -6   6577.00  377.41  0. 1.0000     0. 
  -5   6  -6   6778.02  389.30  0. 1.0000     0. 
  -5   6   7  23955.00 1461.78  0. 1.0000     0. 
   5   6  -7  21107.00 1291.62  0. 1.0000     0. 
  -5  -6  -7  24397.00 1426.10  0. 1.0000     0. 
   5   6   7  23409.00 1369.48  0. 1.0000     0. 
   5  -6  -7  21336.00 1477.35  0. 1.0000     0. 
   5   6   8   2397.79  315.68  0. 1.0000     0. 
  -5  -6   8   2893.54  381.37  0. 1.0000     0. 
  -5   6   9   4020.38  527.75  0. 1.0000     0. 
   5   6  -9   5116.08  421.29  0. 1.0000     0. 
  -5  -6  -9   3456.96  373.73  0. 1.0000     0. 
   5   6   9   4654.58  381.37  0. 1.0000     0. 
  -5  -6   9   5008.49  463.48  0. 1.0000     0. 
  -5   6  10  11183.00  925.82  0. 1.0000     0. 
   5   6 -10   8360.69  556.62  0. 1.0000     0. 
  -5  -6 -10   9968.85  639.30  0. 1.0000     0. 
   5   6  10   9445.06  609.00  0. 1.0000     0. 
  -5  -6  10   9269.53  673.27  0. 1.0000     0. 
   5   6 -11    422.14  150.23  0. 1.0000     0. 
  -5  -6 -11    798.41  453.85  0. 1.0000     0. 
   5   6  11    315.40  204.59  0. 1.0000     0. 
  -5  -6  11    740.66  255.80  0. 1.0000     0. 
  -5  -6 -12    558.61  388.17  0. 1.0000     0. 
   5   6  12    530.86  189.16  0. 1.0000     0. 
   5   7   0     91.48  251.44  0. 1.0000     0. 
  -5  -7   0    -47.45  269.62  0. 1.0000     0. 
   5  -7   0    188.50  311.44  0. 1.0000     0. 
  -5   7   0     25.37  163.31  0. 1.0000     0. 
   5  -7   1  15759.00 1062.57  0. 1.0000     0. 
  -5   7   1  16716.00  998.58  0. 1.0000     0. 
   5   7  -1  17919.00 1142.69  0. 1.0000     0. 
  -5  -7  -1  17489.00 1125.42  0. 1.0000     0. 
   5   7   1  17695.00 1131.65  0. 1.0000     0. 
   5  -7  -1  16710.00 1164.49  0. 1.0000     0. 
  -5   7  -1  16175.00  947.05  0. 1.0000     0. 
   5  -7   2  11356.00  798.98  0. 1.0000     0. 
  -5  -7  -2  12469.00  857.59  0. 1.0000     0. 
   5   7   2  13443.00  911.95  0. 1.0000     0. 
  -5  -7   2  13063.00  926.39  0. 1.0000     0. 
   5  -7  -2  12452.00  987.26  0. 1.0000     0. 
  -5   7  -2  12313.00  742.64  0. 1.0000     0. 
  -5   7   3    792.47  268.49  0. 1.0000     0. 
   5   7  -3    959.80  313.70  0. 1.0000     0. 
  -5  -7  -3    703.57  295.30  0. 1.0000     0. 
   5   7   3    746.04  310.30  0. 1.0000     0. 
  -5  -7   3    922.71  300.68  0. 1.0000     0. 
   5  -7  -3    608.72  518.40  0. 1.0000     0. 
   5  -7   4   1387.03  289.35  0. 1.0000     0. 
  -5   7   4   1695.92  300.40  0. 1.0000     0. 
   5   7  -4   1896.09  354.47  0. 1.0000     0. 
  -5  -7  -4   1685.16  328.71  0. 1.0000     0. 
  -5  -7   4   2250.56  412.51  0. 1.0000     0. 
   5  -7  -4   1644.39  531.99  0. 1.0000     0. 
   5  -7   5    286.81  166.08  0. 1.0000     0. 
  -5   7   5    317.67  293.32  0. 1.0000     0. 
   5   7  -5    429.78  233.18  0. 1.0000     0. 
   5   7   5    165.37  250.74  0. 1.0000     0. 
  -5  -7   5    250.31  254.93  0. 1.0000     0. 
   5  -7  -5    174.60  520.67  0. 1.0000     0. 
  -5   7  -5    213.25  101.39  0. 1.0000     0. 
  -5   7   6    992.92  326.16  0. 1.0000     0. 
   5   7  -6   1183.18  276.13  0. 1.0000     0. 
  -5  -7  -6    838.62  310.87  0. 1.0000     0. 
   5   7   6    934.60  244.42  0. 1.0000     0. 
  -5  -7   6    989.24  293.88  0. 1.0000     0. 
   5  -7  -6    595.98  590.03  0. 1.0000     0. 
  -5   7  -6    854.76   80.15  0. 1.0000     0. 
  -5   7  -6    951.02   97.06  0. 1.0000     0. 
  -5   7   7   2807.47  414.21  0. 1.0000     0. 
   5   7  -7   2381.08  306.91  0. 1.0000     0. 
  -5  -7  -7   2673.55  348.24  0. 1.0000     0. 
   5   7   7   2710.36  334.37  0. 1.0000     0. 
  -5  -7   7   2344.00  372.03  0. 1.0000     0. 
   5  -7  -7   2705.26  714.89  0. 1.0000     0. 
  -5   7   8    300.11  392.70  0. 1.0000     0. 
   5   7  -8     96.38  159.77  0. 1.0000     0. 
  -5  -7  -8    281.29  306.62  0. 1.0000     0. 
  -5  -7   8    183.58  278.28  0. 1.0000     0. 
   5  -7  -8    208.66  669.03  0. 1.0000     0. 
  -5   7   9   3728.76  612.68  0. 1.0000     0. 
  -5  -7  -9   2701.30  362.12  0. 1.0000     0. 
   5   7   9   3691.96  359.29  0. 1.0000     0. 
  -5  -7   9   3372.02  393.83  0. 1.0000     0. 
   5   7 -10   2856.74  291.90  0. 1.0000     0. 
  -5  -7 -10   1888.45  317.95  0. 1.0000     0. 
   5   7  10   2432.61  306.91  0. 1.0000     0. 
  -5  -7 -11    -58.30  560.02  0. 1.0000     0. 
   5   7  11    221.46  189.01  0. 1.0000     0. 
   5   8   0    -25.40  262.49  0. 1.0000     0. 
  -5  -8   0   -241.79  299.83  0. 1.0000     0. 
   5  -8   0     12.75  343.15  0. 1.0000     0. 
  -5   8   0     46.91  181.51  0. 1.0000     0. 
   5  -8   1    613.25  372.88  0. 1.0000     0. 
  -5   8   1    631.65  216.17  0. 1.0000     0. 
   5   8  -1    471.40  265.83  0. 1.0000     0. 
  -5  -8  -1    622.88  339.18  0. 1.0000     0. 
   5   8   1    422.71  288.22  0. 1.0000     0. 
  -5  -8   1   1016.42  339.75  0. 1.0000     0. 
   5  -8  -1    496.89  449.04  0. 1.0000     0. 
  -5   8  -1    629.39  195.84  0. 1.0000     0. 
  -5   8   2  11399.00  745.75  0. 1.0000     0. 
   5   8  -2  11155.00  838.90  0. 1.0000     0. 
  -5  -8  -2  11798.00  838.05  0. 1.0000     0. 
   5   8   2  11045.00  815.12  0. 1.0000     0. 
  -5  -8   2  12194.00  896.66  0. 1.0000     0. 
   5  -8  -2  11566.00  987.26  0. 1.0000     0. 
  -5   8  -2  12132.00  743.20  0. 1.0000     0. 
   5  -8   3  15079.00 1023.22  0. 1.0000     0. 
   5   8  -3  15654.00 1054.64  0. 1.0000     0. 
  -5  -8  -3  15006.00  990.66  0. 1.0000     0. 
   5   8   3  15164.00 1016.99  0. 1.0000     0. 
  -5  -8   3  14870.00 1035.39  0. 1.0000     0. 
   5  -8  -3  16271.00 1290.77  0. 1.0000     0. 
   5  -8   4   1464.32  345.70  0. 1.0000     0. 
  -5   8   4   1418.46  317.10  0. 1.0000     0. 
   5   8  -4   1066.82  306.62  0. 1.0000     0. 
  -5  -8  -4   1199.32  354.19  0. 1.0000     0. 
  -5  -8   4   1490.66  374.58  0. 1.0000     0. 
   5  -8  -4   1332.11  671.86  0. 1.0000     0. 
  -5   8  -4   1173.84  178.74  0. 1.0000     0. 
   5  -8   5   7015.85  582.96  0. 1.0000     0. 
  -5   8   5   8086.06  642.70  0. 1.0000     0. 
   5   8  -5   7986.97  670.72  0. 1.0000     0. 
   5   8   5   8043.59  619.76  0. 1.0000     0. 
  -5  -8   5   7718.00  695.07  0. 1.0000     0. 
   5  -8  -5   7352.77 1026.05  0. 1.0000     0. 
  -5   8  -5   8439.97  515.57  0. 1.0000     0. 
  -5   8   6  10869.00  808.32  0. 1.0000     0. 
   5   8  -6   9569.64  707.81  0. 1.0000     0. 
  -5  -8  -6  11285.00  811.15  0. 1.0000     0. 
   5   8   6  10054.00  709.23  0. 1.0000     0. 
  -5  -8   6   9575.30  784.82  0. 1.0000     0. 
   5  -8  -6  11019.00 1270.95  0. 1.0000     0. 
  -5   8  -6   9872.58  565.68  0. 1.0000     0. 
  -5   8   7    547.56  381.65  0. 1.0000     0. 
   5   8  -7    430.92  226.64  0. 1.0000     0. 
  -5  -8  -7    677.80  335.50  0. 1.0000     0. 
   5   8   7    361.27  255.12  0. 1.0000     0. 
  -5  -8   7    307.76  290.49  0. 1.0000     0. 
   5  -8  -7    991.79  855.04  0. 1.0000     0. 
  -5   8  -7    141.68   43.18  0. 1.0000     0. 
  -5   8  -7    344.56   60.53  0. 1.0000     0. 
  -5   8   8    -77.29  452.43  0. 1.0000     0. 
   5   8  -8     87.32  151.76  0. 1.0000     0. 
  -5  -8  -8    -79.78  330.97  0. 1.0000     0. 
  -5  -8   8    189.67  290.49  0. 1.0000     0. 
   5   8  -9     36.30  171.94  0. 1.0000     0. 
  -5  -8  -9      0.01  346.26  0. 1.0000     0. 
   5   8   9    126.64  258.61  0. 1.0000     0. 
  -5  -8   9    115.57  336.64  0. 1.0000     0. 
  -5  -8 -10    206.29  330.12  0. 1.0000     0. 
   5   8  10    171.15  241.99  0. 1.0000     0. 
   5   9   0    102.72  331.54  0. 1.0000     0. 
   5  -9   0    -18.95  457.81  0. 1.0000     0. 
  -5   9   0      2.69  220.16  0. 1.0000     0. 
   5  -9   1     78.23  425.82  0. 1.0000     0. 
  -5   9   1     47.40  210.93  0. 1.0000     0. 
  -5  -9  -1    192.61  354.47  0. 1.0000     0. 
   5   9   1     78.03  309.46  0. 1.0000     0. 
  -5  -9   1    187.74  381.65  0. 1.0000     0. 
   5  -9  -1    282.90  480.46  0. 1.0000     0. 
  -5   9  -1    142.19  204.08  0. 1.0000     0. 
   5  -9   2   3088.90  505.66  0. 1.0000     0. 
  -5   9   2   2377.69  329.56  0. 1.0000     0. 
   5   9  -2   2716.87  396.09  0. 1.0000     0. 
  -5  -9  -2   2047.56  416.48  0. 1.0000     0. 
   5   9   2   2262.46  424.40  0. 1.0000     0. 
  -5  -9   2   2333.80  436.86  0. 1.0000     0. 
   5  -9  -2   2094.28  621.46  0. 1.0000     0. 
  -5   9  -2   2701.30  289.07  0. 1.0000     0. 
   5  -9   3   5818.23  619.76  0. 1.0000     0. 
  -5   9   3   6019.25  518.12  0. 1.0000     0. 
   5   9  -3   6070.21  556.34  0. 1.0000     0. 
  -5  -9  -3   5546.43  565.68  0. 1.0000     0. 
   5   9   3   6124.00  585.22  0. 1.0000     0. 
  -5  -9   3   5846.54  609.29  0. 1.0000     0. 
   5  -9  -3   5512.45  861.55  0. 1.0000     0. 
  -5   9  -3   5968.28  424.40  0. 1.0000     0. 
   5  -9   4     90.97  366.36  0. 1.0000     0. 
   5   9  -4   -129.93  299.26  0. 1.0000     0. 
  -5  -9  -4   -147.73  341.73  0. 1.0000     0. 
  -5  -9   4     53.28  346.26  0. 1.0000     0. 
   5  -9  -4    209.03  765.01  0. 1.0000     0. 
  -5   9  -4      1.49  154.25  0. 1.0000     0. 
  -5   9   5   5099.09  535.96  0. 1.0000     0. 
   5   9  -5   6237.25  599.09  0. 1.0000     0. 
   5   9   5   4821.63  479.90  0. 1.0000     0. 
   5  -9  -5   4009.06 1014.16  0. 1.0000     0. 
  -5   9  -5   4937.71  356.74  0. 1.0000     0. 
   5  -9   6   2646.09  417.04  0. 1.0000     0. 
  -5   9   6   3652.32  527.75  0. 1.0000     0. 
  -5  -9  -6   3389.01  514.16  0. 1.0000     0. 
   5   9   6   2826.44  395.24  0. 1.0000     0. 
  -5  -9   6   2953.00  468.57  0. 1.0000     0. 
   5  -9  -6   3516.42 1119.76  0. 1.0000     0. 
  -5   9  -6   3338.05  230.38  0. 1.0000     0. 
   5   9  -7    -15.00  192.50  0. 1.0000     0. 
  -5  -9  -7    -29.50  364.38  0. 1.0000     0. 
   5   9   7     83.52  295.87  0. 1.0000     0. 
  -5  -9   7   -118.71  334.09  0. 1.0000     0. 
  -5   9  -7      0.50   52.04  0. 1.0000     0. 
   5   9   8    820.78  337.77  0. 1.0000     0. 
   5  10   0    -64.38  332.39  0. 1.0000     0. 
   5 -10   0   -305.21  514.44  0. 1.0000     0. 
  -5  10   0     42.27  241.93  0. 1.0000     0. 
   5 -10   1   5164.21  642.13  0. 1.0000     0. 
  -5  10   1   4660.24  452.72  0. 1.0000     0. 
   5  10  -1   3901.47  504.53  0. 1.0000     0. 
   5  10   1   3788.22  527.18  0. 1.0000     0. 
  -5  10  -1   4464.89  383.35  0. 1.0000     0. 
   5 -10   2   4614.94  589.75  0. 1.0000     0. 
  -5  10   2   3301.24  398.92  0. 1.0000     0. 
   5  10  -2   3083.24  453.00  0. 1.0000     0. 
   5  10   2   2776.04  468.29  0. 1.0000     0. 
   5 -10  -2   3624.01  771.52  0. 1.0000     0. 
  -5  10  -2   3516.42  323.89  0. 1.0000     0. 
   5 -10   3    953.28  453.28  0. 1.0000     0. 
  -5  10   3    667.89  340.03  0. 1.0000     0. 
   5  10  -3    299.26  338.62  0. 1.0000     0. 
   5  10   3    460.65  377.97  0. 1.0000     0. 
  -5 -10   3    141.02  355.32  0. 1.0000     0. 
   5 -10  -3   1112.12  820.78  0. 1.0000     0. 
  -5  10  -3    559.46  187.57  0. 1.0000     0. 
   5 -10   4    156.20  441.39  0. 1.0000     0. 
  -5  10   4    115.35  336.07  0. 1.0000     0. 
   5  10  -4    198.67  305.77  0. 1.0000     0. 
   5 -10  -4    -21.78  872.31  0. 1.0000     0. 
  -5  10  -4     11.13  133.35  0. 1.0000     0. 
   5 -10   5    -26.07  405.15  0. 1.0000     0. 
  -5  10  -5    -23.34  121.72  0. 1.0000     0. 
   5 -10   6    833.80  491.51  0. 1.0000     0. 
  -5  10  -6    637.03  105.01  0. 1.0000     0. 
   5 -11   0    289.64  689.13  0. 1.0000     0. 
  -5  11   0     32.39  244.20  0. 1.0000     0. 
   5 -11   1   2693.66  716.59  0. 1.0000     0. 
  -5  11   1   2128.54  356.74  0. 1.0000     0. 
   5 -11  -1   2366.08  804.93  0. 1.0000     0. 
  -5  11  -1   2766.14  330.41  0. 1.0000     0. 
  -5  11   2   2216.59  394.68  0. 1.0000     0. 
   5 -11  -2   2425.54 1028.88  0. 1.0000     0. 
  -5  11  -2   2221.12  282.62  0. 1.0000     0. 
   5 -11   3   -328.14  621.18  0. 1.0000     0. 
  -5  11  -3    -51.47  171.35  0. 1.0000     0. 
   5 -11   4    241.42  573.33  0. 1.0000     0. 
  -5  11  -4    123.87  152.18  0. 1.0000     0. 
  -5  11  -5    225.11  112.82  0. 1.0000     0. 
  -6   0   0  42327.00 2393.54  0. 1.0000     0. 
   6   0   1   9439.40  591.73  0. 1.0000     0. 
  -6   0   1   9102.48  634.48  0. 1.0000     0. 
   6   0  -1   9396.93  605.32  0. 1.0000     0. 
  -6   0  -1   8992.06  567.95  0. 1.0000     0. 
   6   0   2 144676.98 7927.51  0. 1.0000     0. 
  -6   0   2 154869.98 8524.91  0. 1.0000     0. 
   6   0  -2 149716.98 8233.29  0. 1.0000     0. 
  -6   0  -2 145497.98 7975.64  0. 1.0000     0. 
   6   0   3 175991.00 9617.77  0. 1.0000     0. 
  -6   0   3 215430.0011852.00  0. 1.0000     0. 
  -6   0  -3 198782.0210849.00  0. 1.0000     0. 
   6   0   4 118092.01 6466.58  0. 1.0000     0. 
  -6   0   4 133862.00 7389.57  0. 1.0000     0. 
  -6   0   4 120865.99 6693.08  0. 1.0000     0. 
  -6   0  -4 134173.00 7335.78  0. 1.0000     0. 
   6   0   5  94875.00 5203.85  0. 1.0000     0. 
  -6   0   5 100963.01 5614.38  0. 1.0000     0. 
  -6   0   5 108181.99 6039.07  0. 1.0000     0. 
  -6   0  -5 111834.99 6121.17  0. 1.0000     0. 
  -6   0   6  99094.00 5515.28  0. 1.0000     0. 
  -6   0  -6 109116.99 5968.28  0. 1.0000     0. 
  -6   0   8   2950.17  331.54  0. 1.0000     0. 
  -6   0   8   1665.34  515.57  0. 1.0000     0. 
  -6   0   9    836.35  248.67  0. 1.0000     0. 
  -6   0   9    460.65  492.64  0. 1.0000     0. 
  -6   0  10  23497.00 1463.19  0. 1.0000     0. 
  -6   0  10  20348.00 1516.99  0. 1.0000     0. 
  -6   0  11  52605.00 3066.25  0. 1.0000     0. 
  -6   0  12  19638.00 1743.77  0. 1.0000     0. 
   6   1   0  18542.00 1121.74  0. 1.0000     0. 
  -6  -1   0  18355.00 1101.64  0. 1.0000     0. 
  -6   1   0  21877.00 1276.05  0. 1.0000     0. 
  -6   1   1  42356.00 2413.08  0. 1.0000     0. 
  -6   1   1  39439.00 2235.84  0. 1.0000     0. 
   6   1  -1  40289.00 2312.00  0. 1.0000     0. 
  -6  -1  -1  41563.00 2340.88  0. 1.0000     0. 
  -6  -1   1  41619.00 2353.34  0. 1.0000     0. 
  -6   1   2 159173.00 8748.58  0. 1.0000     0. 
  -6   1   2 158861.98 8776.89  0. 1.0000     0. 
   6   1  -2 164779.02 9071.34  0. 1.0000     0. 
   6   1   2 167214.00 9173.26  0. 1.0000     0. 
  -6  -1   2 166902.00 9201.58  0. 1.0000     0. 
  -6   1  -2 158041.00 8649.48  0. 1.0000     0. 
  -6   1  -2 152463.02 8349.37  0. 1.0000     0. 
  -6   1   3 110022.99 6092.86  0. 1.0000     0. 
  -6   1   3 107899.00 6024.91  0. 1.0000     0. 
   6   1  -3 108012.00 5979.61  0. 1.0000     0. 
  -6  -1  -3 109513.00 6033.40  0. 1.0000     0. 
   6   1   3 104303.00 5738.95  0. 1.0000     0. 
  -6  -1   3 110249.01 6118.34  0. 1.0000     0. 
  -6   1  -3 104049.01 5721.96  0. 1.0000     0. 
  -6   1  -3 103907.01 5699.31  0. 1.0000     0. 
  -6   1   4  18519.00 1142.13  0. 1.0000     0. 
  -6   1   4  22050.00 1414.78  0. 1.0000     0. 
   6   1  -4  17361.00 1075.88  0. 1.0000     0. 
  -6  -1  -4  19405.00 1114.10  0. 1.0000     0. 
   6   1   4  17095.00  984.71  0. 1.0000     0. 
  -6  -1   4  20815.00 1302.94  0. 1.0000     0. 
  -6   1  -4  18256.00 1023.50  0. 1.0000     0. 
  -6   1   5  29813.00 1764.72  0. 1.0000     0. 
  -6   1   5  28850.00 1822.20  0. 1.0000     0. 
   6   1  -5  28964.00 1693.94  0. 1.0000     0. 
  -6  -1  -5  29813.00 1664.78  0. 1.0000     0. 
   6   1   5  29672.00 1660.53  0. 1.0000     0. 
  -6   1  -5  31710.00 1776.33  0. 1.0000     0. 
  -6   1  -5  29190.00 1617.21  0. 1.0000     0. 
  -6   1   6  74999.99 4374.29  0. 1.0000     0. 
  -6  -1  -6  71716.00 3929.78  0. 1.0000     0. 
   6   1   6  64553.00 3550.39  0. 1.0000     0. 
  -6  -1   6  70809.99 4009.06  0. 1.0000     0. 
  -6  -1   6  65232.00 3714.61  0. 1.0000     0. 
  -6   1   7  68148.01 3992.07  0. 1.0000     0. 
  -6   1   7  55408.00 3171.00  0. 1.0000     0. 
  -6  -1  -7  67299.00 3689.12  0. 1.0000     0. 
   6   1   7  52888.00 2913.36  0. 1.0000     0. 
  -6  -1   7  60561.00 3505.09  0. 1.0000     0. 
  -6  -1   7  60504.00 3451.30  0. 1.0000     0. 
  -6   1   8   9399.76  684.88  0. 1.0000     0. 
  -6  -1  -8  10430.00  587.48  0. 1.0000     0. 
  -6  -1   8  12506.00 1061.72  0. 1.0000     0. 
  -6  -1   8  10249.00  745.75  0. 1.0000     0. 
  -6   1   9   5399.20  772.08  0. 1.0000     0. 
  -6   1   9   6288.22  509.91  0. 1.0000     0. 
  -6  -1  -9   5532.27  340.32  0. 1.0000     0. 
  -6  -1   9   5478.48  778.03  0. 1.0000     0. 
  -6  -1   9   6407.13  570.50  0. 1.0000     0. 
  -6   1  10  38901.00 2595.69  0. 1.0000     0. 
  -6   1  10  35617.00 2093.15  0. 1.0000     0. 
  -6  -1  10  36835.00 2598.81  0. 1.0000     0. 
  -6   1  11  23281.00 1733.86  0. 1.0000     0. 
  -6   1  11  22375.00 1426.67  0. 1.0000     0. 
  -6  -1  11  24227.00 1530.86  0. 1.0000     0. 
  -6  -1  11  20057.00 1698.47  0. 1.0000     0. 
  -6  -1  12   4198.75 1064.83  0. 1.0000     0. 
   6   2   0 140006.02 7723.66  0. 1.0000     0. 
  -6  -2   0 130408.00 7168.74  0. 1.0000     0. 
  -6   2   0 136382.00 7494.33  0. 1.0000     0. 
  -6   2   1 207162.9811345.00  0. 1.0000     0. 
  -6   2   1 219904.0212072.00  0. 1.0000     0. 
   6   2  -1 220555.0012104.00  0. 1.0000     0. 
  -6  -2  -1 201018.9810997.00  0. 1.0000     0. 
  -6  -2   1 211239.9811585.00  0. 1.0000     0. 
  -6   2  -1 198924.0010883.00  0. 1.0000     0. 
  -6   2  -1 213108.0211662.00  0. 1.0000     0. 
  -6   2   2 138505.00 7658.54  0. 1.0000     0. 
  -6   2   2 131455.00 7242.35  0. 1.0000     0. 
   6   2  -2 140685.00 7768.96  0. 1.0000     0. 
  -6  -2  -2 138250.00 7621.74  0. 1.0000     0. 
   6   2   2 132021.02 7265.00  0. 1.0000     0. 
  -6  -2   2 130861.01 7231.02  0. 1.0000     0. 
  -6   2  -2 136353.00 7471.68  0. 1.0000     0. 
  -6   2  -2 137967.00 7567.94  0. 1.0000     0. 
  -6   2   3   6460.92  478.48  0. 1.0000     0. 
   6   2  -3   6475.08  512.74  0. 1.0000     0. 
  -6  -2  -3   7876.55  518.97  0. 1.0000     0. 
  -6  -2   3   7395.24  543.03  0. 1.0000     0. 
  -6   2  -3   7684.02  481.88  0. 1.0000     0. 
  -6   2   4  13290.00  856.17  0. 1.0000     0. 
   6   2  -4  13678.00  892.41  0. 1.0000     0. 
  -6  -2  -4  13381.00  817.95  0. 1.0000     0. 
   6   2   4  13802.00  828.71  0. 1.0000     0. 
  -6  -2   4  12387.00  820.78  0. 1.0000     0. 
  -6   2  -4  11373.00  667.89  0. 1.0000     0. 
  -6   2  -4  11922.00  682.61  0. 1.0000     0. 
  -6   2   5   1205.83  330.97  0. 1.0000     0. 
  -6   2   5   1361.27  227.12  0. 1.0000     0. 
   6   2  -5   1181.77  194.11  0. 1.0000     0. 
  -6  -2  -5   1257.08  173.98  0. 1.0000     0. 
   6   2   5   1325.31  177.38  0. 1.0000     0. 
  -6  -2   5   1570.21  263.70  0. 1.0000     0. 
  -6   2  -5   1374.01  112.91  0. 1.0000     0. 
  -6   2  -5   1171.01   91.14  0. 1.0000     0. 
  -6   2   6  83947.00 4815.96  0. 1.0000     0. 
  -6   2   6  96602.00 5402.03  0. 1.0000     0. 
   6   2  -6  94733.99 5280.29  0. 1.0000     0. 
  -6  -2  -6  88392.00 4847.11  0. 1.0000     0. 
   6   2   6  92949.99 5116.08  0. 1.0000     0. 
  -6  -2   6  97876.01 5498.30  0. 1.0000     0. 
  -6   2   7 110899.99 6186.29  0. 1.0000     0. 
   6   2  -7 110504.00 6140.99  0. 1.0000     0. 
  -6  -2  -7 115514.99 6319.36  0. 1.0000     0. 
   6   2   7 111381.99 6112.68  0. 1.0000     0. 
  -6  -2   7 109032.01 6109.85  0. 1.0000     0. 
  -6   2   8  57644.00 3391.84  0. 1.0000     0. 
  -6   2   8  46376.00 2677.52  0. 1.0000     0. 
  -6  -2  -8  53879.00 2961.49  0. 1.0000     0. 
   6   2   8  49349.00 2732.16  0. 1.0000     0. 
  -6  -2   8  52067.00 3071.91  0. 1.0000     0. 
  -6  -2   8  49802.00 2890.71  0. 1.0000     0. 
  -6   2   9  31937.00 2036.52  0. 1.0000     0. 
  -6   2   9  25818.00 1548.13  0. 1.0000     0. 
  -6  -2  -9  27732.00 1592.30  0. 1.0000     0. 
   6   2   9  26636.00 1492.07  0. 1.0000     0. 
  -6  -2   9  27050.00 1827.57  0. 1.0000     0. 
  -6  -2   9  26591.00 1653.17  0. 1.0000     0. 
  -6   2  10  24974.00 1803.51  0. 1.0000     0. 
  -6  -2 -10  23641.00 1358.72  0. 1.0000     0. 
  -6  -2  10  21818.00 1399.21  0. 1.0000     0. 
  -6  -2  10  19878.00 1725.65  0. 1.0000     0. 
  -6   2  11  14816.00 1311.15  0. 1.0000     0. 
  -6  -2 -11  11676.00  686.01  0. 1.0000     0. 
  -6  -2  11  13049.00  893.83  0. 1.0000     0. 
  -6  -2  11  12919.00 1431.77  0. 1.0000     0. 
   6   3   0  43035.00 2461.49  0. 1.0000     0. 
  -6  -3   0  38930.00 2202.15  0. 1.0000     0. 
  -6   3   1  60702.00 3389.01  0. 1.0000     0. 
  -6   3   1  59202.00 3309.74  0. 1.0000     0. 
   6   3  -1  62373.00 3507.92  0. 1.0000     0. 
  -6  -3  -1  60617.00 3431.48  0. 1.0000     0. 
   6   3   1  63930.00 3584.37  0. 1.0000     0. 
  -6  -3   1  57333.00 3210.64  0. 1.0000     0. 
  -6   3  -1  63647.00 3547.56  0. 1.0000     0. 
  -6   3  -1  57248.00 3179.50  0. 1.0000     0. 
  -6   3   2 120130.00 6636.46  0. 1.0000     0. 
  -6   3   2 118177.01 6517.55  0. 1.0000     0. 
   6   3  -2 119649.00 6642.12  0. 1.0000     0. 
  -6  -3  -2 114751.01 6308.03  0. 1.0000     0. 
   6   3   2 120470.00 6653.45  0. 1.0000     0. 
  -6  -3   2 115797.99 6409.96  0. 1.0000     0. 
  -6   3  -2 115374.00 6330.68  0. 1.0000     0. 
  -6   3  -2 130153.00 7160.24  0. 1.0000     0. 
  -6   3   3  56257.00 3171.00  0. 1.0000     0. 
  -6   3   3  53681.00 3023.78  0. 1.0000     0. 
   6   3  -3  54332.00 3100.22  0. 1.0000     0. 
   6   3   3  50849.00 2862.40  0. 1.0000     0. 
  -6  -3   3  51104.00 2910.53  0. 1.0000     0. 
  -6   3  -3  56370.00 3086.07  0. 1.0000     0. 
  -6   3  -3  52322.00 2890.71  0. 1.0000     0. 
  -6   3   4   3473.95  328.99  0. 1.0000     0. 
   6   3  -4   3473.95  356.45  0. 1.0000     0. 
  -6  -3  -4   4714.04  364.38  0. 1.0000     0. 
   6   3   4   3994.90  329.27  0. 1.0000     0. 
  -6   3  -4   3918.46  259.12  0. 1.0000     0. 
  -6   3   5  19476.00 1249.72  0. 1.0000     0. 
  -6   3   5  19983.00 1215.46  0. 1.0000     0. 
  -6  -3  -5  19431.00 1129.39  0. 1.0000     0. 
   6   3   5  19819.00 1152.32  0. 1.0000     0. 
  -6  -3   5  18672.00 1175.25  0. 1.0000     0. 
  -6   3  -5  19029.00 1062.85  0. 1.0000     0. 
  -6   3  -5  19601.00 1090.32  0. 1.0000     0. 
  -6   3   6  65826.99 3728.76  0. 1.0000     0. 
  -6   3   6  63930.00 3686.29  0. 1.0000     0. 
   6   3  -6  64213.00 3635.33  0. 1.0000     0. 
  -6  -3  -6  65855.00 3632.50  0. 1.0000     0. 
   6   3   6  65544.00 3643.82  0. 1.0000     0. 
  -6  -3   6  64128.00 3663.64  0. 1.0000     0. 
  -6   3   7  72820.00 4227.06  0. 1.0000     0. 
   6   3  -7  72961.00 4102.49  0. 1.0000     0. 
  -6  -3  -7  72621.99 3994.90  0. 1.0000     0. 
  -6  -3   7  68941.01 3912.79  0. 1.0000     0. 
  -6   3   8  17472.00 1272.37  0. 1.0000     0. 
  -6   3   8  15484.00 1014.16  0. 1.0000     0. 
  -6  -3  -8  18250.00 1044.73  0. 1.0000     0. 
   6   3   8  14960.00  878.26  0. 1.0000     0. 
  -6  -3   8  15045.00 1014.72  0. 1.0000     0. 
  -6   3   9   7284.82  883.07  0. 1.0000     0. 
  -6   3   9   6704.41  535.11  0. 1.0000     0. 
  -6  -3  -9   6911.09  432.05  0. 1.0000     0. 
   6   3   9   6517.55  420.72  0. 1.0000     0. 
  -6  -3   9   6452.43  555.21  0. 1.0000     0. 
  -6  -3   9   5424.68  720.55  0. 1.0000     0. 
  -6   3  10  21367.00 1327.01  0. 1.0000     0. 
  -6   3  10  21634.00 1796.15  0. 1.0000     0. 
  -6  -3 -10  21138.00 1252.55  0. 1.0000     0. 
  -6  -3  10  20297.00 1286.52  0. 1.0000     0. 
  -6   3  11  13460.00 1319.08  0. 1.0000     0. 
  -6   3  11  11656.00  817.95  0. 1.0000     0. 
   6   3  11  11070.00  639.86  0. 1.0000     0. 
  -6  -3  11  12121.00  841.73  0. 1.0000     0. 
  -6  -3  11  10498.00 1353.91  0. 1.0000     0. 
  -6  -3 -12   2218.57  324.18  0. 1.0000     0. 
   6   4   0  17007.00 1083.80  0. 1.0000     0. 
  -6  -4   0  15161.00  969.42  0. 1.0000     0. 
  -6   4   0  14505.00  847.39  0. 1.0000     0. 
  -6   4   0  17095.00 1013.31  0. 1.0000     0. 
  -6   4   1   6370.32  431.77  0. 1.0000     0. 
   6   4  -1   5733.29  454.13  0. 1.0000     0. 
  -6  -4  -1   5444.50  426.10  0. 1.0000     0. 
   6   4   1   6073.04  484.14  0. 1.0000     0. 
  -6  -4   1   5537.93  483.86  0. 1.0000     0. 
  -6   4  -1   5600.22  358.15  0. 1.0000     0. 
  -6   4  -1   5911.66  406.29  0. 1.0000     0. 
  -6   4   2  96687.01 5450.16  0. 1.0000     0. 
  -6   4   2  98923.99 5453.00  0. 1.0000     0. 
   6   4  -2 100453.00 5603.05  0. 1.0000     0. 
  -6  -4  -2  93998.01 5218.00  0. 1.0000     0. 
  -6  -4   2  92864.99 5161.38  0. 1.0000     0. 
  -6   4  -2  93884.01 5161.38  0. 1.0000     0. 
  -6   4  -2  91903.01 5028.31  0. 1.0000     0. 
  -6   4   3 131738.00 7349.94  0. 1.0000     0. 
  -6   4   3 115344.99 6356.17  0. 1.0000     0. 
   6   4  -3 127718.00 7089.46  0. 1.0000     0. 
   6   4   3 125254.99 6913.92  0. 1.0000     0. 
  -6  -4   3 119875.01 6639.29  0. 1.0000     0. 
  -6   4  -3 114468.01 6262.73  0. 1.0000     0. 
  -6   4  -3 127009.99 6936.57  0. 1.0000     0. 
  -6   4   4  86098.01 4767.83  0. 1.0000     0. 
  -6   4   4  98216.00 5549.26  0. 1.0000     0. 
   6   4  -4  87457.00 4886.74  0. 1.0000     0. 
  -6  -4  -4  91874.00 5076.44  0. 1.0000     0. 
   6   4   4  89071.01 4929.21  0. 1.0000     0. 
  -6  -4   4  86920.01 4847.11  0. 1.0000     0. 
  -6   4  -4  90797.99 4966.02  0. 1.0000     0. 
  -6   4  -4  81597.00 4473.38  0. 1.0000     0. 
  -6   4   5  74462.00 4317.66  0. 1.0000     0. 
  -6   4   5  64864.00 3618.34  0. 1.0000     0. 
   6   4  -5  60844.00 3462.62  0. 1.0000     0. 
  -6  -4  -5  71433.00 3958.09  0. 1.0000     0. 
   6   4   5  64213.00 3564.55  0. 1.0000     0. 
  -6  -4   5  63986.00 3635.33  0. 1.0000     0. 
  -6   4   6  66704.00 3745.75  0. 1.0000     0. 
  -6   4   6  75481.01 4462.06  0. 1.0000     0. 
   6   4  -6  69649.01 3963.76  0. 1.0000     0. 
  -6  -4  -6  69960.01 3864.66  0. 1.0000     0. 
   6   4   6  68460.00 3799.54  0. 1.0000     0. 
  -6  -4   6  67242.01 3816.53  0. 1.0000     0. 
  -6   4   7  14969.00 1203.28  0. 1.0000     0. 
  -6  -4  -7  13400.00  803.51  0. 1.0000     0. 
  -6  -4   7  12149.00  846.26  0. 1.0000     0. 
  -6   4   8   1503.11  281.11  0. 1.0000     0. 
   6   4  -8   1490.94  240.43  0. 1.0000     0. 
  -6  -4  -8    792.47  193.49  0. 1.0000     0. 
   6   4   8   1043.32  174.77  0. 1.0000     0. 
  -6  -4   8   1283.69  317.38  0. 1.0000     0. 
  -6   4   9    442.24  308.04  0. 1.0000     0. 
  -6   4   9    892.98  228.06  0. 1.0000     0. 
   6   4  -9    758.49  178.20  0. 1.0000     0. 
  -6  -4  -9    212.97  165.49  0. 1.0000     0. 
   6   4   9    451.30  143.06  0. 1.0000     0. 
  -6  -4   9    302.09  278.62  0. 1.0000     0. 
  -6   4  10  11263.00  849.94  0. 1.0000     0. 
  -6  -4 -10  10742.00  721.97  0. 1.0000     0. 
  -6  -4  10  13100.00  896.66  0. 1.0000     0. 
  -6  -4 -11  27797.00 1642.13  0. 1.0000     0. 
   6   4  11  30068.00 1686.86  0. 1.0000     0. 
  -6  -4  11  25034.00 1936.01  0. 1.0000     0. 
  -6  -4  11  29756.00 1787.37  0. 1.0000     0. 
  -6  -4 -12  15314.00 1050.68  0. 1.0000     0. 
   6   5   0   2112.40  328.99  0. 1.0000     0. 
  -6  -5   0   2228.20  323.33  0. 1.0000     0. 
  -6   5   0   1729.61  193.49  0. 1.0000     0. 
  -6   5   1  15277.00  919.59  0. 1.0000     0. 
  -6   5   1  15762.00  919.88  0. 1.0000     0. 
   6   5  -1  15388.00 1006.79  0. 1.0000     0. 
  -6  -5  -1  15691.00 1002.55  0. 1.0000     0. 
   6   5   1  15470.00  975.37  0. 1.0000     0. 
  -6  -5   1  14850.00  959.23  0. 1.0000     0. 
  -6   5  -1  14890.00  881.65  0. 1.0000     0. 
  -6   5  -1  17766.00 1019.25  0. 1.0000     0. 
  -6   5   2  91931.01 5082.10  0. 1.0000     0. 
   6   5  -2  92044.00 5152.88  0. 1.0000     0. 
  -6  -5  -2  84938.01 4736.69  0. 1.0000     0. 
  -6  -5   2  88505.00 5022.65  0. 1.0000     0. 
  -6   5  -2  97507.99 5348.24  0. 1.0000     0. 
  -6   5  -2  88136.99 4832.95  0. 1.0000     0. 
  -6   5   3  87118.01 4827.29  0. 1.0000     0. 
  -6   5   3  75736.01 4187.42  0. 1.0000     0. 
   6   5  -3  84257.99 4756.51  0. 1.0000     0. 
  -6  -5  -3  77831.01 4362.96  0. 1.0000     0. 
   6   5   3  79784.99 4436.58  0. 1.0000     0. 
  -6   5  -3  76869.00 4212.91  0. 1.0000     0. 
  -6   5  -3  79019.99 4343.14  0. 1.0000     0. 
  -6   5   4  26736.00 1565.97  0. 1.0000     0. 
  -6   5   4  24117.00 1403.74  0. 1.0000     0. 
  -6  -5  -4  25909.00 1517.27  0. 1.0000     0. 
   6   5   4  24952.00 1473.95  0. 1.0000     0. 
  -6  -5   4  25209.00 1522.37  0. 1.0000     0. 
  -6   5  -4  23836.00 1332.39  0. 1.0000     0. 
  -6   5  -4  26455.00 1472.54  0. 1.0000     0. 
  -6   5   5  23364.00 1374.01  0. 1.0000     0. 
  -6   5   5  29898.00 1757.36  0. 1.0000     0. 
   6   5  -5  26435.00 1590.60  0. 1.0000     0. 
  -6  -5  -5  23539.00 1370.61  0. 1.0000     0. 
   6   5   5  25912.00 1520.95  0. 1.0000     0. 
  -6  -5   5  26379.00 1585.22  0. 1.0000     0. 
  -6   5  -5  27373.00 1520.10  0. 1.0000     0. 
  -6   5  -5  24921.00 1382.50  0. 1.0000     0. 
  -6   5   6  29077.00 1693.37  0. 1.0000     0. 
  -6   5   6  31682.00 1875.42  0. 1.0000     0. 
   6   5  -6  30153.00 1807.19  0. 1.0000     0. 
  -6  -5  -6  29955.00 1708.10  0. 1.0000     0. 
   6   5   6  28482.00 1648.36  0. 1.0000     0. 
  -6  -5   6  30379.00 1803.51  0. 1.0000     0. 
  -6   5   7  20433.00 1262.46  0. 1.0000     0. 
  -6   5   7  19151.00 1189.98  0. 1.0000     0. 
   6   5  -7  17715.00 1142.69  0. 1.0000     0. 
  -6  -5  -7  21166.00 1239.24  0. 1.0000     0. 
  -6  -5   7  18630.00 1179.22  0. 1.0000     0. 
  -6   5   8   2436.01  369.76  0. 1.0000     0. 
   6   5  -8   2087.48  281.40  0. 1.0000     0. 
  -6  -5  -8   2582.95  276.19  0. 1.0000     0. 
   6   5   8   2387.88  270.13  0. 1.0000     0. 
  -6  -5   8   2253.11  363.53  0. 1.0000     0. 
  -6   5   9   4170.44  397.79  0. 1.0000     0. 
  -6   5   9   3454.13  476.78  0. 1.0000     0. 
  -6  -5  -9   3488.11  315.68  0. 1.0000     0. 
   6   5   9   3717.44  319.93  0. 1.0000     0. 
  -6  -5   9   3355.04  398.92  0. 1.0000     0. 
  -6  -5  10  19329.00 1203.57  0. 1.0000     0. 
  -6  -5 -11  16090.00 1091.17  0. 1.0000     0. 
   6   5  11  17375.00 1014.16  0. 1.0000     0. 
  -6  -5 -12   1881.37  411.66  0. 1.0000     0. 
   6   6   0  61608.00 3490.94  0. 1.0000     0. 
  -6  -6   0  60504.00 3445.64  0. 1.0000     0. 
  -6   6   0  64354.00 3556.06  0. 1.0000     0. 
  -6   6   1  80803.99 4459.23  0. 1.0000     0. 
   6   6  -1  85729.99 4838.61  0. 1.0000     0. 
  -6  -6  -1  80181.01 4504.53  0. 1.0000     0. 
   6   6   1  79558.00 4470.55  0. 1.0000     0. 
  -6  -6   1  81710.00 4637.59  0. 1.0000     0. 
   6  -6  -1  82503.01 4606.45  0. 1.0000     0. 
  -6   6  -1  96432.99 5308.60  0. 1.0000     0. 
  -6   6  -1  81426.99 4476.21  0. 1.0000     0. 
  -6   6   2  57135.00 3182.33  0. 1.0000     0. 
   6   6  -2  60079.00 3442.81  0. 1.0000     0. 
  -6  -6  -2  57843.00 3287.09  0. 1.0000     0. 
   6   6   2  55946.00 3165.34  0. 1.0000     0. 
  -6  -6   2  53256.00 3049.26  0. 1.0000     0. 
   6  -6  -2  55747.00 3173.84  0. 1.0000     0. 
  -6   6  -2  56568.00 3120.04  0. 1.0000     0. 
  -6   6  -2  61268.00 3377.69  0. 1.0000     0. 
  -6   6   3   7406.56  550.96  0. 1.0000     0. 
   6   6  -3   6823.32  563.14  0. 1.0000     0. 
  -6  -6  -3   6605.32  544.73  0. 1.0000     0. 
   6   6   3   5939.97  502.83  0. 1.0000     0. 
  -6  -6   3   6670.44  563.70  0. 1.0000     0. 
   6  -6  -3   9020.38  725.08  0. 1.0000     0. 
  -6   6  -3   6489.23  407.42  0. 1.0000     0. 
  -6   6  -3   6359.00  408.27  0. 1.0000     0. 
  -6   6   4   1880.80  307.47  0. 1.0000     0. 
   6   6  -4   2414.78  368.91  0. 1.0000     0. 
  -6  -6  -4   2130.24  321.06  0. 1.0000     0. 
   6   6   4   1964.32  289.92  0. 1.0000     0. 
  -6  -6   4   2374.86  430.07  0. 1.0000     0. 
  -6   6  -4   2144.68  170.78  0. 1.0000     0. 
  -6   6  -4   2236.12  189.72  0. 1.0000     0. 
  -6   6   5    844.56  264.10  0. 1.0000     0. 
  -6   6   5   1222.82  221.40  0. 1.0000     0. 
   6   6  -5   1135.05  285.96  0. 1.0000     0. 
  -6  -6  -5    537.66  220.24  0. 1.0000     0. 
   6   6   5    706.40  227.10  0. 1.0000     0. 
  -6  -6   5    754.81  335.22  0. 1.0000     0. 
  -6   6  -5    635.62  102.24  0. 1.0000     0. 
  -6   6  -5    862.68   92.92  0. 1.0000     0. 
  -6   6   6  29643.00 1753.96  0. 1.0000     0. 
   6   6  -6  34513.00 2028.88  0. 1.0000     0. 
  -6  -6  -6  29247.00 1681.77  0. 1.0000     0. 
   6   6   6  33154.00 1917.89  0. 1.0000     0. 
  -6  -6   6  32616.00 2030.86  0. 1.0000     0. 
  -6   6   7  41223.00 2392.13  0. 1.0000     0. 
  -6   6   7  47084.00 2703.85  0. 1.0000     0. 
   6   6  -7  39779.00 2329.27  0. 1.0000     0. 
  -6  -6  -7  41733.00 2359.57  0. 1.0000     0. 
  -6  -6   7  45413.00 2693.66  0. 1.0000     0. 
  -6   6   8  24068.00 1517.55  0. 1.0000     0. 
   6   6  -8  19740.00 1241.22  0. 1.0000     0. 
  -6  -6  -8  24343.00 1428.37  0. 1.0000     0. 
   6   6   8  21891.00 1292.18  0. 1.0000     0. 
  -6  -6   8  22044.00 1380.52  0. 1.0000     0. 
   6   6  -9  13443.00  884.77  0. 1.0000     0. 
  -6  -6  -9  14015.00  867.78  0. 1.0000     0. 
   6   6   9  13327.00  825.03  0. 1.0000     0. 
  -6  -6   9  13032.00  882.22  0. 1.0000     0. 
  -6  -6 -10  12206.00  776.90  0. 1.0000     0. 
   6   6  10  11025.00  709.23  0. 1.0000     0. 
  -6  -6 -11   4711.21  643.54  0. 1.0000     0. 
   6   6  11   6361.83  448.19  0. 1.0000     0. 
   6   7   0  28596.00 1758.21  0. 1.0000     0. 
  -6  -7   0  25886.00 1601.07  0. 1.0000     0. 
   6  -7   0  24898.00 1513.02  0. 1.0000     0. 
  -6   7   0  25478.00 1453.00  0. 1.0000     0. 
   6  -7   1  30776.00 1800.96  0. 1.0000     0. 
  -6   7   1  30889.00 1762.46  0. 1.0000     0. 
   6   7  -1  33126.00 1981.59  0. 1.0000     0. 
  -6  -7  -1  33182.00 1972.53  0. 1.0000     0. 
   6   7   1  32474.00 1924.69  0. 1.0000     0. 
  -6  -7   1  32559.00 1976.22  0. 1.0000     0. 
   6  -7  -1  31568.00 1882.50  0. 1.0000     0. 
  -6   7  -1  31540.00 1776.90  0. 1.0000     0. 
   6  -7   2  36523.00 2086.35  0. 1.0000     0. 
  -6   7   2  37882.00 2152.89  0. 1.0000     0. 
   6   7  -2  39581.00 2362.96  0. 1.0000     0. 
  -6  -7  -2  38675.00 2272.08  0. 1.0000     0. 
   6   7   2  38194.00 2235.84  0. 1.0000     0. 
   6  -7  -2  33805.00 2021.80  0. 1.0000     0. 
  -6   7  -2  36410.00 2035.11  0. 1.0000     0. 
  -6   7   3  11407.00  749.43  0. 1.0000     0. 
  -6  -7  -3  10917.00  788.50  0. 1.0000     0. 
   6   7   3   8912.79  670.16  0. 1.0000     0. 
  -6  -7   3  10900.00  903.45  0. 1.0000     0. 
   6  -7  -3  11319.00  864.95  0. 1.0000     0. 
  -6   7  -3  10875.00  653.17  0. 1.0000     0. 
  -6   7   4    541.90  279.22  0. 1.0000     0. 
   6   7  -4    457.81  236.64  0. 1.0000     0. 
  -6  -7  -4    637.60  278.03  0. 1.0000     0. 
   6   7   4    441.39  232.16  0. 1.0000     0. 
  -6  -7   4    833.80  351.08  0. 1.0000     0. 
   6  -7  -4    734.43  453.85  0. 1.0000     0. 
  -6   7  -4    568.52  126.56  0. 1.0000     0. 
  -6   7  -4    533.97   92.33  0. 1.0000     0. 
  -6   7   5   5486.97  506.51  0. 1.0000     0. 
   6   7  -5   5546.43  504.53  0. 1.0000     0. 
  -6  -7  -5   5331.25  483.30  0. 1.0000     0. 
   6   7   5   5509.62  478.48  0. 1.0000     0. 
  -6  -7   5   5169.87  514.16  0. 1.0000     0. 
  -6   7  -5   5203.85  331.26  0. 1.0000     0. 
  -6   7  -5   5787.08  346.83  0. 1.0000     0. 
  -6   7   6  26639.00 1632.22  0. 1.0000     0. 
   6   7  -6  26543.00 1623.44  0. 1.0000     0. 
  -6  -7  -6  25108.00 1484.14  0. 1.0000     0. 
   6   7   6  24929.00 1489.81  0. 1.0000     0. 
  -6  -7   6  24751.00 1561.15  0. 1.0000     0. 
  -6   7  -6  24377.00 1351.64  0. 1.0000     0. 
  -6   7  -6  24691.00 1370.33  0. 1.0000     0. 
  -6   7   7  32078.00 1950.17  0. 1.0000     0. 
  -6   7   7  35985.00 2108.15  0. 1.0000     0. 
   6   7  -7  28709.00 1727.63  0. 1.0000     0. 
  -6  -7  -7  30464.00 1778.59  0. 1.0000     0. 
  -6   7   8  11424.00  942.24  0. 1.0000     0. 
   6   7  -8   9464.88  716.02  0. 1.0000     0. 
  -6  -7  -8  10258.00  711.49  0. 1.0000     0. 
   6   7   8   9524.34  654.87  0. 1.0000     0. 
  -6  -7   8   9068.51  762.74  0. 1.0000     0. 
  -6  -7  -9   3397.51  400.06  0. 1.0000     0. 
   6   7   9   3394.67  349.38  0. 1.0000     0. 
  -6  -7 -10   3980.74  453.00  0. 1.0000     0. 
   6   7  10   4742.35  396.38  0. 1.0000     0. 
   6   8   0   1061.72  319.65  0. 1.0000     0. 
  -6  -8   0   1238.11  368.91  0. 1.0000     0. 
  -6   8   0   1081.54  206.85  0. 1.0000     0. 
   6  -8   1   2831.25  486.13  0. 1.0000     0. 
  -6   8   1   2355.04  272.73  0. 1.0000     0. 
   6   8  -1   2781.99  406.85  0. 1.0000     0. 
  -6  -8  -1   2522.65  422.71  0. 1.0000     0. 
   6   8   1   2652.04  371.46  0. 1.0000     0. 
  -6  -8   1   2661.95  439.13  0. 1.0000     0. 
   6  -8  -1   2769.53  582.96  0. 1.0000     0. 
  -6   8  -1   2261.04  254.53  0. 1.0000     0. 
   6  -8   2  22129.00 1377.12  0. 1.0000     0. 
  -6   8   2  20436.00 1210.08  0. 1.0000     0. 
   6   8  -2  22676.00 1480.18  0. 1.0000     0. 
  -6  -8  -2  22656.00 1438.28  0. 1.0000     0. 
   6   8   2  22149.00 1424.40  0. 1.0000     0. 
  -6  -8   2  20968.00 1407.13  0. 1.0000     0. 
   6  -8  -2  21583.00 1546.43  0. 1.0000     0. 
  -6   8  -2  22777.00 1309.46  0. 1.0000     0. 
   6  -8   3  32050.00 1861.83  0. 1.0000     0. 
  -6   8   3  30408.00 1772.65  0. 1.0000     0. 
   6   8  -3  31767.00 1932.90  0. 1.0000     0. 
  -6  -8  -3  31710.00 1903.17  0. 1.0000     0. 
   6   8   3  29360.00 1825.03  0. 1.0000     0. 
  -6  -8   3  31455.00 1954.41  0. 1.0000     0. 
   6  -8  -3  34655.00 2263.87  0. 1.0000     0. 
  -6   8  -3  33692.00 1893.26  0. 1.0000     0. 
  -6   8   4  25931.00 1558.04  0. 1.0000     0. 
   6   8  -4  22460.00 1425.82  0. 1.0000     0. 
  -6  -8  -4  22967.00 1425.25  0. 1.0000     0. 
   6   8   4  21863.00 1377.12  0. 1.0000     0. 
  -6  -8   4  23556.00 1526.33  0. 1.0000     0. 
   6  -8  -4  27109.00 1852.49  0. 1.0000     0. 
  -6   8  -4  23117.00 1311.72  0. 1.0000     0. 
   6   8  -5  17896.00 1181.48  0. 1.0000     0. 
  -6  -8  -5  18539.00 1172.71  0. 1.0000     0. 
   6   8   5  18443.00 1174.12  0. 1.0000     0. 
  -6  -8   5  18777.00 1278.88  0. 1.0000     0. 
   6  -8  -5  21492.00 1583.24  0. 1.0000     0. 
  -6   8  -5  19388.00 1085.79  0. 1.0000     0. 
  -6   8  -5  18842.00 1059.17  0. 1.0000     0. 
  -6   8   6  22820.00 1447.05  0. 1.0000     0. 
   6   8  -6  19748.00 1266.42  0. 1.0000     0. 
  -6  -8  -6  18867.00 1179.22  0. 1.0000     0. 
   6   8   6  19139.00 1208.66  0. 1.0000     0. 
  -6  -8   6  19337.00 1345.41  0. 1.0000     0. 
  -6   8  -6  19711.00 1096.83  0. 1.0000     0. 
  -6   8  -6  18862.00 1047.28  0. 1.0000     0. 
  -6  -8  -7   5390.71  534.54  0. 1.0000     0. 
   6   8   7   4773.49  472.25  0. 1.0000     0. 
  -6  -8  -8    102.89  322.76  0. 1.0000     0. 
   6   8   8    122.65  251.73  0. 1.0000     0. 
  -6  -8  -9    136.78  349.38  0. 1.0000     0. 
   6   8   9    120.81  253.31  0. 1.0000     0. 
   6   9   0    110.42  286.81  0. 1.0000     0. 
  -6  -9   0    400.62  396.38  0. 1.0000     0. 
   6  -9   0    377.69  478.48  0. 1.0000     0. 
   6  -9   1   2839.75  565.12  0. 1.0000     0. 
  -6   9   1   2611.55  313.70  0. 1.0000     0. 
   6   9  -1   2191.11  435.45  0. 1.0000     0. 
  -6  -9  -1   2365.51  464.89  0. 1.0000     0. 
   6   9   1   2224.80  383.92  0. 1.0000     0. 
  -6   9  -1   2644.67  277.94  0. 1.0000     0. 
   6  -9   2  20416.00 1410.53  0. 1.0000     0. 
  -6   9   2  17206.00 1054.64  0. 1.0000     0. 
  -6  -9  -2  17460.00 1192.24  0. 1.0000     0. 
   6   9   2  18194.00 1248.30  0. 1.0000     0. 
   6  -9  -2  18664.00 1497.73  0. 1.0000     0. 
  -6   9  -2  19134.00 1118.63  0. 1.0000     0. 
   6  -9   3  20283.00 1344.85  0. 1.0000     0. 
  -6   9   3  19052.00 1170.44  0. 1.0000     0. 
   6   9  -3  20815.00 1380.52  0. 1.0000     0. 
  -6  -9  -3  18012.00 1209.79  0. 1.0000     0. 
   6  -9  -3  21424.00 1671.01  0. 1.0000     0. 
  -6   9  -3  20943.00 1206.40  0. 1.0000     0. 
   6  -9   4   9937.70  707.25  0. 1.0000     0. 
  -6   9   4  10682.00  768.12  0. 1.0000     0. 
   6   9  -4  10467.00  855.32  0. 1.0000     0. 
  -6  -9  -4   8825.02  725.65  0. 1.0000     0. 
   6   9   4  10311.00  788.79  0. 1.0000     0. 
   6  -9  -4  10399.00 1201.58  0. 1.0000     0. 
  -6   9  -4   9963.18  611.83  0. 1.0000     0. 
  -6   9   5   8873.15  735.28  0. 1.0000     0. 
  -6  -9  -5   7429.21  661.66  0. 1.0000     0. 
   6   9   5   8032.27  650.91  0. 1.0000     0. 
   6  -9  -5   8335.21 1193.37  0. 1.0000     0. 
  -6   9  -5   8165.34  499.72  0. 1.0000     0. 
   6   9   6   5846.54  574.18  0. 1.0000     0. 
  -6   9  -6   6087.20  357.59  0. 1.0000     0. 
   6 -10   0  13655.00 1223.67  0. 1.0000     0. 
  -6  10   0  11104.00  725.65  0. 1.0000     0. 
   6 -10   1  14892.00 1262.46  0. 1.0000     0. 
  -6  10   1  13086.00  844.28  0. 1.0000     0. 
   6 -10  -1  15283.00 1366.36  0. 1.0000     0. 
  -6  10  -1  13621.00  842.86  0. 1.0000     0. 
  -6  10   2   9643.25  691.11  0. 1.0000     0. 
   6 -10  -2  12058.00 1391.84  0. 1.0000     0. 
  -6  10  -2  10903.00  694.51  0. 1.0000     0. 
   6 -10   3   2417.32  614.38  0. 1.0000     0. 
  -6  10   3   2334.65  352.77  0. 1.0000     0. 
  -6  10  -3   1989.81  238.45  0. 1.0000     0. 
   6 -10   4    403.17  428.65  0. 1.0000     0. 
  -6  10  -4     86.66  128.71  0. 1.0000     0. 
  -6  10  -5    244.08  127.72  0. 1.0000     0. 
  -6  11   0   7839.74  607.87  0. 1.0000     0. 
  -6  11   1   7596.26  630.24  0. 1.0000     0. 
  -6  11  -2   5512.45  433.75  0. 1.0000     0. 
  -6  11  -3   1020.95  201.61  0. 1.0000     0. 
   7   0   0     45.61   93.43  0. 1.0000     0. 
   7   0   1   1361.27  154.90  0. 1.0000     0. 
  -7   0   1   1809.45  239.41  0. 1.0000     0. 
  -7   0  -1   2048.13  241.05  0. 1.0000     0. 
   7   0   2  52944.00 2941.67  0. 1.0000     0. 
  -7   0   2  56427.00 3204.98  0. 1.0000     0. 
  -7   0  -2  51784.00 2887.88  0. 1.0000     0. 
   7   0   3  49830.00 2763.02  0. 1.0000     0. 
  -7   0   3  52746.00 3003.96  0. 1.0000     0. 
  -7   0   3  58890.00 3338.05  0. 1.0000     0. 
   7   0   4    861.83  108.72  0. 1.0000     0. 
  -7   0   4   1974.80  363.53  0. 1.0000     0. 
  -7   0   4   1105.60  264.44  0. 1.0000     0. 
  -7   0  -4   1215.17  153.82  0. 1.0000     0. 
  -7   0   5  54672.00 3154.02  0. 1.0000     0. 
  -7   0  -5  51982.00 2868.06  0. 1.0000     0. 
  -7   0   6  46744.00 2751.70  0. 1.0000     0. 
  -7   0   6  45781.00 2818.51  0. 1.0000     0. 
  -7   0  -6  50878.00 2798.41  0. 1.0000     0. 
  -7   0  -6  41506.00 2297.85  0. 1.0000     0. 
  -7   0   7    639.86  282.53  0. 1.0000     0. 
  -7   0  -7   1375.71  109.74  0. 1.0000     0. 
  -7   0  -7   1306.34  145.75  0. 1.0000     0. 
  -7   0   8   1733.86  350.23  0. 1.0000     0. 
  -7   0   8    564.55  610.14  0. 1.0000     0. 
  -7   0   9    606.45  674.97  0. 1.0000     0. 
  -7   0   9    972.25  317.38  0. 1.0000     0. 
  -7   0  10    306.34  627.12  0. 1.0000     0. 
  -7   0  10    750.85  318.52  0. 1.0000     0. 
   7   1   0     21.21  125.96  0. 1.0000     0. 
  -7  -1   0    -39.30  154.90  0. 1.0000     0. 
  -7   1   0    170.92  187.60  0. 1.0000     0. 
  -7   1   1   8799.54  689.13  0. 1.0000     0. 
  -7   1   1   8825.02  611.83  0. 1.0000     0. 
   7   1  -1   8541.89  553.23  0. 1.0000     0. 
  -7  -1  -1   7927.51  538.79  0. 1.0000     0. 
   7   1   1   8134.19  550.40  0. 1.0000     0. 
  -7  -1   1   7842.57  561.72  0. 1.0000     0. 
  -7   1  -1   7667.04  560.59  0. 1.0000     0. 
  -7   1  -1   8312.56  550.96  0. 1.0000     0. 
  -7   1   2   1150.62  217.64  0. 1.0000     0. 
  -7   1   2   1355.04  326.73  0. 1.0000     0. 
   7   1  -2   1104.47  181.68  0. 1.0000     0. 
  -7  -1  -2    985.56  161.18  0. 1.0000     0. 
   7   1   2   1003.96  159.29  0. 1.0000     0. 
  -7  -1   2   1038.22  206.85  0. 1.0000     0. 
  -7   1  -2   1157.70  221.04  0. 1.0000     0. 
  -7   1  -2   1081.54  157.25  0. 1.0000     0. 
  -7   1   3  15515.00  959.51  0. 1.0000     0. 
   7   1  -3  17551.00 1080.12  0. 1.0000     0. 
  -7  -1  -3  14655.00  901.47  0. 1.0000     0. 
   7   1   3  16458.00  978.48  0. 1.0000     0. 
  -7  -1   3  15847.00 1035.11  0. 1.0000     0. 
  -7   1  -3  14371.00  839.75  0. 1.0000     0. 
  -7   1   4   1152.32  236.27  0. 1.0000     0. 
  -7   1   4   1480.75  409.68  0. 1.0000     0. 
   7   1  -4    931.20  183.49  0. 1.0000     0. 
   7   1   4    797.56  136.10  0. 1.0000     0. 
  -7  -1   4   1165.34  243.88  0. 1.0000     0. 
  -7   1  -4   1278.88  202.43  0. 1.0000     0. 
  -7   1  -4   1103.06  130.55  0. 1.0000     0. 
  -7   1   5   8462.62  785.96  0. 1.0000     0. 
  -7   1   5   9572.47  701.30  0. 1.0000     0. 
  -7  -1  -5   9464.88  576.16  0. 1.0000     0. 
  -7  -1   5   9665.90  713.19  0. 1.0000     0. 
  -7   1  -5   9082.66  536.24  0. 1.0000     0. 
  -7   1   6   4198.75  439.98  0. 1.0000     0. 
  -7   1   6   5008.49  654.59  0. 1.0000     0. 
  -7  -1   6   4246.88  510.48  0. 1.0000     0. 
  -7   1  -6   4473.38  266.31  0. 1.0000     0. 
  -7   1  -6   4654.58  289.07  0. 1.0000     0. 
  -7   1   7   1070.78  460.93  0. 1.0000     0. 
  -7  -1  -7   1366.08  141.82  0. 1.0000     0. 
   7   1   7   2139.30  151.67  0. 1.0000     0. 
  -7  -1   7   2111.27  394.39  0. 1.0000     0. 
  -7  -1   7    874.57  445.36  0. 1.0000     0. 
  -7   1   8   4541.33  475.93  0. 1.0000     0. 
  -7   1   8   3731.59  624.01  0. 1.0000     0. 
  -7  -1  -8   3309.74  209.77  0. 1.0000     0. 
   7   1   8   3267.27  197.71  0. 1.0000     0. 
  -7  -1   8   4456.39  505.66  0. 1.0000     0. 
  -7  -1   8   3499.43  739.24  0. 1.0000     0. 
  -7   1   9   2533.12  355.32  0. 1.0000     0. 
  -7   1   9   2081.54  755.10  0. 1.0000     0. 
  -7  -1   9   1932.33  848.53  0. 1.0000     0. 
  -7  -1   9   2649.49  377.41  0. 1.0000     0. 
  -7   1  10   1605.60  872.03  0. 1.0000     0. 
  -7   1  10   1609.85  304.08  0. 1.0000     0. 
  -7  -1  10   1676.67  364.38  0. 1.0000     0. 
  -7  -1  10   1715.17  985.84  0. 1.0000     0. 
  -7  -2   0    359.85  166.51  0. 1.0000     0. 
  -7   2   0     -3.22  207.98  0. 1.0000     0. 
   7   2  -1  78086.00 4371.46  0. 1.0000     0. 
   7   2   1  77888.01 4334.65  0. 1.0000     0. 
  -7  -2   1  72677.99 4060.02  0. 1.0000     0. 
  -7   2  -1  78567.01 4362.96  0. 1.0000     0. 
  -7   2  -1  77237.01 4286.52  0. 1.0000     0. 
  -7   2   2  44479.00 2525.48  0. 1.0000     0. 
  -7   2   2  50396.00 2902.04  0. 1.0000     0. 
   7   2  -2  45612.00 2606.74  0. 1.0000     0. 
  -7  -2  -2  49292.00 2799.26  0. 1.0000     0. 
   7   2   2  45555.00 2562.85  0. 1.0000     0. 
  -7  -2   2  44111.00 2523.21  0. 1.0000     0. 
  -7   2  -2  48867.00 2733.86  0. 1.0000     0. 
  -7   2   3   3680.63  345.70  0. 1.0000     0. 
   7   2  -3   3391.84  338.05  0. 1.0000     0. 
  -7  -2  -3   4286.52  325.59  0. 1.0000     0. 
   7   2   3   3575.87  296.71  0. 1.0000     0. 
  -7  -2   3   4663.08  444.51  0. 1.0000     0. 
  -7   2  -3   3810.87  272.65  0. 1.0000     0. 
  -7   2   4    646.09  295.58  0. 1.0000     0. 
  -7   2   4   1600.51  253.74  0. 1.0000     0. 
  -7  -2  -4    869.20  175.93  0. 1.0000     0. 
   7   2   4   1680.35  193.32  0. 1.0000     0. 
  -7  -2   4   1320.50  276.10  0. 1.0000     0. 
  -7   2  -4   1101.36  121.60  0. 1.0000     0. 
  -7   2   5    622.03  345.41  0. 1.0000     0. 
  -7   2   5   1088.05  231.60  0. 1.0000     0. 
   7   2  -5   1049.83  225.74  0. 1.0000     0. 
  -7  -2  -5    913.93  171.55  0. 1.0000     0. 
   7   2   5   1084.94  155.10  0. 1.0000     0. 
  -7  -2   5    879.67  250.31  0. 1.0000     0. 
  -7   2   6   8301.24  795.58  0. 1.0000     0. 
  -7   2   6   9971.68  721.69  0. 1.0000     0. 
   7   2  -6   9402.60  647.51  0. 1.0000     0. 
  -7  -2  -6   9331.81  572.20  0. 1.0000     0. 
  -7  -2   6  10518.00  765.29  0. 1.0000     0. 
  -7   2   7  26583.00 1872.59  0. 1.0000     0. 
  -7   2   7  26073.00 1610.42  0. 1.0000     0. 
   7   2   7  27129.00 1529.16  0. 1.0000     0. 
  -7  -2   7  26614.00 1636.18  0. 1.0000     0. 
  -7   2   8   1080.97  273.02  0. 1.0000     0. 
  -7  -2  -8   1780.01  171.06  0. 1.0000     0. 
   7   2   8    890.15  103.85  0. 1.0000     0. 
  -7  -2   8   2086.35  566.53  0. 1.0000     0. 
  -7  -2   8   1190.26  287.37  0. 1.0000     0. 
  -7   2   9   9883.91  727.91  0. 1.0000     0. 
  -7   2   9   9153.45  989.52  0. 1.0000     0. 
   7   2   9   8788.21  508.49  0. 1.0000     0. 
  -7  -2   9   7310.30 1027.46  0. 1.0000     0. 
  -7  -2   9   9340.31  716.87  0. 1.0000     0. 
  -7   2  10  17030.00 1571.91  0. 1.0000     0. 
  -7  -2 -10  15586.00  911.95  0. 1.0000     0. 
   7   2  10  12138.00  690.26  0. 1.0000     0. 
  -7  -2  10  15405.00 1057.76  0. 1.0000     0. 
  -7  -2  10  13262.00 1548.13  0. 1.0000     0. 
  -7  -3   0    -16.70  182.79  0. 1.0000     0. 
  -7   3   0    152.52  186.44  0. 1.0000     0. 
  -7   3   0     75.57  121.89  0. 1.0000     0. 
  -7   3   1  16503.00  986.69  0. 1.0000     0. 
  -7   3   1  15747.00  970.55  0. 1.0000     0. 
   7   3  -1  18290.00 1120.04  0. 1.0000     0. 
  -7  -3  -1  17690.00 1129.39  0. 1.0000     0. 
   7   3   1  18179.00 1109.29  0. 1.0000     0. 
  -7  -3   1  16532.00 1011.32  0. 1.0000     0. 
  -7   3  -1  16266.00  957.25  0. 1.0000     0. 
  -7   3  -1  16325.00  994.34  0. 1.0000     0. 
  -7   3   2   8176.66  560.59  0. 1.0000     0. 
   7   3  -2   9054.35  647.79  0. 1.0000     0. 
  -7  -3  -2   7533.97  515.85  0. 1.0000     0. 
   7   3   2   7802.94  540.49  0. 1.0000     0. 
  -7  -3   2   7777.46  562.57  0. 1.0000     0. 
  -7   3  -2   8054.92  511.89  0. 1.0000     0. 
  -7   3  -2   7514.15  507.08  0. 1.0000     0. 
  -7   3   3   5028.31  455.55  0. 1.0000     0. 
  -7   3   3   6282.55  471.12  0. 1.0000     0. 
   7   3  -3   5787.08  479.05  0. 1.0000     0. 
  -7  -3  -3   5611.55  433.75  0. 1.0000     0. 
   7   3   3   6305.20  452.43  0. 1.0000     0. 
  -7  -3   3   5832.38  488.11  0. 1.0000     0. 
  -7   3  -3   6160.81  408.27  0. 1.0000     0. 
  -7   3  -3   5271.80  374.29  0. 1.0000     0. 
  -7   3   4   2026.33  256.48  0. 1.0000     0. 
  -7   3   4   2360.70  373.44  0. 1.0000     0. 
   7   3  -4   2051.81  288.22  0. 1.0000     0. 
  -7  -3  -4   2053.23  245.55  0. 1.0000     0. 
   7   3   4   2031.71  217.72  0. 1.0000     0. 
  -7  -3   4   2111.27  350.23  0. 1.0000     0. 
  -7   3  -4   1690.83  155.63  0. 1.0000     0. 
  -7   3   5   1533.97  362.68  0. 1.0000     0. 
  -7   3   5   1338.05  229.76  0. 1.0000     0. 
   7   3  -5   1402.89  260.76  0. 1.0000     0. 
  -7  -3  -5   1613.53  211.52  0. 1.0000     0. 
   7   3   5   1499.72  197.34  0. 1.0000     0. 
  -7   3  -5   1490.09  121.86  0. 1.0000     0. 
  -7   3  -5   1701.30  124.66  0. 1.0000     0. 
  -7   3   6    134.77  200.85  0. 1.0000     0. 
  -7   3   6    697.34  379.11  0. 1.0000     0. 
  -7  -3  -6    411.95  154.19  0. 1.0000     0. 
   7   3   6    169.17  138.59  0. 1.0000     0. 
  -7  -3   6    252.29  260.25  0. 1.0000     0. 
  -7   3   7   2862.40  343.71  0. 1.0000     0. 
  -7   3   7   1892.98  534.82  0. 1.0000     0. 
   7   3  -7   3193.65  345.98  0. 1.0000     0. 
  -7  -3  -7   2117.21  220.30  0. 1.0000     0. 
   7   3   7   2731.88  246.43  0. 1.0000     0. 
  -7  -3   7   2471.97  375.71  0. 1.0000     0. 
  -7   3   8    938.56  517.27  0. 1.0000     0. 
   7   3  -8   1077.58  219.22  0. 1.0000     0. 
  -7  -3  -8   1190.83  175.85  0. 1.0000     0. 
   7   3   8   1074.18  148.53  0. 1.0000     0. 
  -7  -3   8   1176.39  309.46  0. 1.0000     0. 
  -7   3   9   3822.19  803.51  0. 1.0000     0. 
  -7   3   9   4164.77  398.92  0. 1.0000     0. 
  -7  -3  -9   4062.85  290.49  0. 1.0000     0. 
  -7  -3   9   4660.24  516.14  0. 1.0000     0. 
  -7  -3   9   2597.68  719.99  0. 1.0000     0. 
  -7  -3 -10   2563.13  319.65  0. 1.0000     0. 
   7   3  10   2219.70  172.85  0. 1.0000     0. 
  -7  -3  10   2557.19  430.07  0. 1.0000     0. 
  -7  -3  10   2123.16  924.12  0. 1.0000     0. 
  -7  -3 -11     91.87  235.08  0. 1.0000     0. 
   7   4   0     30.86  202.69  0. 1.0000     0. 
  -7  -4   0    261.92  257.11  0. 1.0000     0. 
  -7   4   0     84.85  120.67  0. 1.0000     0. 
  -7   4   0    -15.09  194.22  0. 1.0000     0. 
  -7   4   1   1563.14  205.27  0. 1.0000     0. 
  -7   4   1   1512.74  332.39  0. 1.0000     0. 
   7   4  -1   1189.41  237.46  0. 1.0000     0. 
  -7  -4  -1   1251.41  249.57  0. 1.0000     0. 
   7   4   1   1611.27  230.41  0. 1.0000     0. 
  -7  -4   1   1327.01  301.25  0. 1.0000     0. 
  -7   4  -1   1574.46  160.28  0. 1.0000     0. 
  -7   4  -1   1146.94  148.78  0. 1.0000     0. 
  -7   4   2  30096.00 1831.82  0. 1.0000     0. 
   7   4  -2  30436.00 1815.97  0. 1.0000     0. 
  -7  -4  -2  31087.00 1815.97  0. 1.0000     0. 
   7   4   2  32644.00 1914.49  0. 1.0000     0. 
  -7  -4   2  29813.00 1751.98  0. 1.0000     0. 
  -7   4  -2  28709.00 1598.24  0. 1.0000     0. 
  -7   4  -2  29247.00 1654.02  0. 1.0000     0. 
  -7   4   3  37599.00 2288.79  0. 1.0000     0. 
  -7   4   3  35334.00 2053.79  0. 1.0000     0. 
   7   4  -3  34485.00 2028.03  0. 1.0000     0. 
  -7  -4  -3  34909.00 2006.23  0. 1.0000     0. 
   7   4   3  36778.00 2116.36  0. 1.0000     0. 
  -7  -4   3  34739.00 2024.06  0. 1.0000     0. 
  -7   4  -3  37004.00 2043.88  0. 1.0000     0. 
  -7   4  -3  33154.00 1848.53  0. 1.0000     0. 
  -7   4   4   2144.39  431.77  0. 1.0000     0. 
  -7   4   4   1105.89  226.81  0. 1.0000     0. 
   7   4  -4    983.86  248.67  0. 1.0000     0. 
  -7  -4  -4   1254.53  231.85  0. 1.0000     0. 
   7   4   4   1165.06  216.70  0. 1.0000     0. 
  -7  -4   4   1362.40  278.96  0. 1.0000     0. 
  -7   4  -4   1073.89  133.86  0. 1.0000     0. 
  -7   4   5  29615.00 1762.17  0. 1.0000     0. 
  -7   4   5  26056.00 1702.72  0. 1.0000     0. 
   7   4  -5  30946.00 1873.44  0. 1.0000     0. 
  -7  -4  -5  28482.00 1634.48  0. 1.0000     0. 
   7   4   5  30662.00 1776.05  0. 1.0000     0. 
  -7  -4   5  28230.00 1717.72  0. 1.0000     0. 
  -7   4  -5  28069.00 1555.49  0. 1.0000     0. 
  -7   4  -5  27259.00 1506.51  0. 1.0000     0. 
  -7   4   6  31795.00 2104.19  0. 1.0000     0. 
  -7   4   6  31059.00 1855.32  0. 1.0000     0. 
   7   4  -6  28100.00 1704.42  0. 1.0000     0. 
  -7  -4  -6  28188.00 1600.22  0. 1.0000     0. 
   7   4   6  29587.00 1707.81  0. 1.0000     0. 
  -7  -4   6  28766.00 1763.31  0. 1.0000     0. 
  -7   4   7    241.17  182.67  0. 1.0000     0. 
  -7   4   7   1610.13  640.43  0. 1.0000     0. 
   7   4  -7    110.56  150.68  0. 1.0000     0. 
   7   4   7    498.02  161.64  0. 1.0000     0. 
  -7  -4   7    345.98  262.57  0. 1.0000     0. 
  -7   4   8    369.20  612.68  0. 1.0000     0. 
  -7   4   8    789.07  230.49  0. 1.0000     0. 
   7   4  -8    850.79  223.05  0. 1.0000     0. 
  -7  -4  -8    390.15  182.33  0. 1.0000     0. 
   7   4   8    745.75  161.64  0. 1.0000     0. 
  -7  -4   8    630.52  311.15  0. 1.0000     0. 
   7   4  -9    436.01  177.46  0. 1.0000     0. 
  -7  -4  -9    258.38  164.41  0. 1.0000     0. 
  -7  -4   9    293.60  280.69  0. 1.0000     0. 
  -7  -4 -10     53.74  166.76  0. 1.0000     0. 
   7   4  10    257.02  121.01  0. 1.0000     0. 
  -7  -4 -11   1122.03  348.81  0. 1.0000     0. 
   7   5   0    133.78  237.49  0. 1.0000     0. 
  -7  -5   0      6.11  213.76  0. 1.0000     0. 
  -7   5   0     25.31  129.10  0. 1.0000     0. 
  -7   5   0     55.38  130.46  0. 1.0000     0. 
  -7   5   1    640.43  170.67  0. 1.0000     0. 
  -7   5   1    432.05  158.86  0. 1.0000     0. 
   7   5  -1    471.40  236.04  0. 1.0000     0. 
  -7  -5  -1    698.75  252.21  0. 1.0000     0. 
  -7  -5   1    578.71  274.29  0. 1.0000     0. 
  -7   5  -1    552.09  143.40  0. 1.0000     0. 
  -7   5  -1   1012.46  167.64  0. 1.0000     0. 
  -7   5   2   1763.87  232.93  0. 1.0000     0. 
  -7   5   2    954.13  191.22  0. 1.0000     0. 
   7   5  -2   1697.62  280.86  0. 1.0000     0. 
   7   5   2   1722.82  288.22  0. 1.0000     0. 
  -7  -5   2   1249.72  362.97  0. 1.0000     0. 
  -7   5  -2   1100.23  157.30  0. 1.0000     0. 
  -7   5  -2   1786.52  174.43  0. 1.0000     0. 
  -7   5   3  10130.00  645.81  0. 1.0000     0. 
  -7  -5  -3  11668.00  779.16  0. 1.0000     0. 
   7   5   3  13522.00  891.28  0. 1.0000     0. 
  -7  -5   3  13072.00  950.17  0. 1.0000     0. 
  -7   5  -3  11362.00  661.38  0. 1.0000     0. 
  -7   5   4     71.40  147.99  0. 1.0000     0. 
  -7   5   4   -105.97  205.75  0. 1.0000     0. 
   7   5  -4    364.67  213.79  0. 1.0000     0. 
  -7  -5  -4     25.08  193.12  0. 1.0000     0. 
   7   5   4     18.37  157.53  0. 1.0000     0. 
  -7   5  -4     66.87   76.22  0. 1.0000     0. 
  -7   5  -4      2.60   85.79  0. 1.0000     0. 
  -7   5   5   8960.92  628.82  0. 1.0000     0. 
  -7  -5  -5  10102.00  660.82  0. 1.0000     0. 
   7   5   5  11237.00  729.61  0. 1.0000     0. 
  -7  -5   5  10696.00  798.98  0. 1.0000     0. 
  -7   5  -5  11031.00  627.12  0. 1.0000     0. 
  -7   5  -5  10459.00  594.00  0. 1.0000     0. 
  -7   5   6   5393.54  456.40  0. 1.0000     0. 
  -7   5   6   5761.60  497.45  0. 1.0000     0. 
   7   5  -6   5580.40  495.75  0. 1.0000     0. 
  -7  -5  -6   5753.11  433.75  0. 1.0000     0. 
   7   5   6   5673.83  447.34  0. 1.0000     0. 
  -7  -5   6   5665.34  533.41  0. 1.0000     0. 
  -7   5   7     76.67  282.47  0. 1.0000     0. 
  -7   5   7    501.13  199.18  0. 1.0000     0. 
   7   5  -7    601.36  218.09  0. 1.0000     0. 
  -7  -5  -7     65.20  202.52  0. 1.0000     0. 
   7   5   7    312.00  172.71  0. 1.0000     0. 
  -7  -5   7    345.70  307.19  0. 1.0000     0. 
  -7   5   8   2441.39  421.86  0. 1.0000     0. 
   7   5  -8   3459.79  325.03  0. 1.0000     0. 
  -7  -5  -8   2435.44  284.26  0. 1.0000     0. 
   7   5   8   3012.45  279.59  0. 1.0000     0. 
  -7  -5   8   2575.31  379.11  0. 1.0000     0. 
  -7  -5  -9      4.64  211.38  0. 1.0000     0. 
   7   5   9    109.34  137.40  0. 1.0000     0. 
  -7  -5 -10    160.31  216.00  0. 1.0000     0. 
   7   5  10    156.85  130.10  0. 1.0000     0. 
  -7  -5 -11    123.64  328.14  0. 1.0000     0. 
   7   6   0     57.81  260.33  0. 1.0000     0. 
  -7  -6   0    112.29  280.32  0. 1.0000     0. 
  -7   6   0     16.68  162.71  0. 1.0000     0. 
  -7   6   0    191.85  108.41  0. 1.0000     0. 
  -7   6   1  23080.00 1330.69  0. 1.0000     0. 
  -7   6   1  26144.00 1506.23  0. 1.0000     0. 
   7   6  -1  25028.00 1559.74  0. 1.0000     0. 
  -7  -6  -1  25272.00 1558.32  0. 1.0000     0. 
  -7  -6   1  25127.00 1597.68  0. 1.0000     0. 
  -7   6  -1  25487.00 1455.55  0. 1.0000     0. 
  -7   6  -1  24224.00 1374.01  0. 1.0000     0. 
  -7   6   2  16676.00 1009.06  0. 1.0000     0. 
  -7   6   2  18264.00 1081.54  0. 1.0000     0. 
   7   6  -2  16778.00 1086.64  0. 1.0000     0. 
   7   6   2  17172.00 1100.23  0. 1.0000     0. 
  -7  -6   2  17695.00 1139.86  0. 1.0000     0. 
  -7   6  -2  16934.00  982.44  0. 1.0000     0. 
  -7   6   3   2428.93  293.32  0. 1.0000     0. 
  -7   6   3   1639.58  223.61  0. 1.0000     0. 
   7   6  -3   1812.85  306.62  0. 1.0000     0. 
  -7  -6  -3   2159.11  334.09  0. 1.0000     0. 
   7   6   3   1697.62  297.28  0. 1.0000     0. 
  -7  -6   3   2089.47  392.41  0. 1.0000     0. 
  -7   6  -3   1642.98  159.03  0. 1.0000     0. 
  -7   6   4    129.93  225.48  0. 1.0000     0. 
   7   6  -4    347.11  245.92  0. 1.0000     0. 
  -7  -6  -4    215.60  258.15  0. 1.0000     0. 
   7   6   4    130.35  195.07  0. 1.0000     0. 
  -7  -6   4    866.36  387.60  0. 1.0000     0. 
  -7   6  -4    201.64  104.30  0. 1.0000     0. 
  -7   6  -4    273.02   75.40  0. 1.0000     0. 
  -7   6   5    120.22  274.12  0. 1.0000     0. 
  -7   6   5    315.97  170.30  0. 1.0000     0. 
   7   6  -5    424.12  207.62  0. 1.0000     0. 
  -7  -6  -5    278.88  209.99  0. 1.0000     0. 
   7   6   5    409.97  207.16  0. 1.0000     0. 
  -7  -6   5    374.57  417.61  0. 1.0000     0. 
  -7   6  -5    223.19   74.32  0. 1.0000     0. 
  -7   6  -5    142.92   72.59  0. 1.0000     0. 
  -7   6   6   3301.24  314.55  0. 1.0000     0. 
  -7   6   6   3137.03  429.22  0. 1.0000     0. 
   7   6  -6   2859.57  362.68  0. 1.0000     0. 
  -7  -6  -6   2916.19  332.96  0. 1.0000     0. 
   7   6   6   2961.49  307.19  0. 1.0000     0. 
  -7  -6   6   2936.01  518.40  0. 1.0000     0. 
  -7   6   7  11042.00  819.08  0. 1.0000     0. 
  -7   6   7   9849.93  682.61  0. 1.0000     0. 
   7   6  -7  10821.00  785.11  0. 1.0000     0. 
  -7  -6  -7  10425.00  692.53  0. 1.0000     0. 
   7   6   7   9739.51  629.39  0. 1.0000     0. 
  -7  -6   7  10093.00  839.47  0. 1.0000     0. 
  -7  -6  -8   1161.95  276.92  0. 1.0000     0. 
   7   6   8    748.30  180.80  0. 1.0000     0. 
  -7  -6  -9   2553.79  343.43  0. 1.0000     0. 
   7   6   9   2791.90  260.36  0. 1.0000     0. 
  -7  -6 -10   5019.81  404.30  0. 1.0000     0. 
   7   6  10   5588.90  399.21  0. 1.0000     0. 
   7   7   0    -28.37  254.05  0. 1.0000     0. 
  -7  -7   0    176.02  285.96  0. 1.0000     0. 
  -7   7   0    150.28  163.65  0. 1.0000     0. 
  -7   7   0    -28.15  115.06  0. 1.0000     0. 
  -7   7   1   9439.40  616.08  0. 1.0000     0. 
  -7   7   1  11229.00  691.96  0. 1.0000     0. 
   7   7  -1  10303.00  786.81  0. 1.0000     0. 
  -7  -7  -1   9501.69  747.45  0. 1.0000     0. 
   7   7   1   9306.33  732.45  0. 1.0000     0. 
  -7  -7   1   9379.95  763.31  0. 1.0000     0. 
  -7   7  -1   8530.57  537.94  0. 1.0000     0. 
  -7   7   2   6098.52  462.34  0. 1.0000     0. 
  -7   7   2   7910.52  525.20  0. 1.0000     0. 
   7   7  -2   6687.42  599.38  0. 1.0000     0. 
  -7  -7  -2   5939.97  565.97  0. 1.0000     0. 
   7   7   2   6356.17  560.02  0. 1.0000     0. 
  -7  -7   2   5498.30  580.41  0. 1.0000     0. 
  -7   7  -2   6435.44  400.91  0. 1.0000     0. 
  -7   7  -2   5741.78  385.33  0. 1.0000     0. 
  -7   7   3    307.19  247.76  0. 1.0000     0. 
  -7   7   3    608.44  175.91  0. 1.0000     0. 
   7   7  -3    178.14  276.58  0. 1.0000     0. 
  -7  -7  -3    137.23  319.36  0. 1.0000     0. 
   7   7   3    330.69  253.31  0. 1.0000     0. 
  -7   7  -3    367.50   93.77  0. 1.0000     0. 
  -7   7  -3    267.04  121.46  0. 1.0000     0. 
  -7   7   4    910.81  190.35  0. 1.0000     0. 
  -7   7   4    566.25  290.49  0. 1.0000     0. 
  -7  -7  -4    491.22  267.81  0. 1.0000     0. 
   7   7   4    525.48  219.73  0. 1.0000     0. 
  -7  -7   4    350.79  322.20  0. 1.0000     0. 
  -7   7  -4    747.17  101.42  0. 1.0000     0. 
  -7   7  -4    622.31  124.69  0. 1.0000     0. 
  -7   7   5     73.75  189.30  0. 1.0000     0. 
  -7   7   5    167.21  343.43  0. 1.0000     0. 
   7   7  -5    103.77  243.97  0. 1.0000     0. 
  -7  -7  -5    -41.76  228.51  0. 1.0000     0. 
   7   7   5     19.30  196.83  0. 1.0000     0. 
  -7  -7   5    210.67  302.38  0. 1.0000     0. 
  -7   7   6    961.78  237.94  0. 1.0000     0. 
  -7   7   6    434.03  365.80  0. 1.0000     0. 
   7   7  -6    632.79  244.03  0. 1.0000     0. 
  -7  -7  -6    255.72  246.06  0. 1.0000     0. 
   7   7   6    502.55  222.85  0. 1.0000     0. 
  -7  -7  -7    735.28  299.26  0. 1.0000     0. 
   7   7   7    902.89  219.03  0. 1.0000     0. 
  -7  -7  -8    213.45  272.42  0. 1.0000     0. 
   7   7   8    125.08  175.96  0. 1.0000     0. 
   7   7   9   1533.69  262.46  0. 1.0000     0. 
   7   8   0    -75.14  332.11  0. 1.0000     0. 
  -7  -8   0    -67.07  350.23  0. 1.0000     0. 
  -7   8   0     20.44  163.02  0. 1.0000     0. 
  -7   8   1    278.88  123.95  0. 1.0000     0. 
  -7   8   1    319.65  194.88  0. 1.0000     0. 
   7   8  -1    240.88  287.65  0. 1.0000     0. 
  -7  -8  -1    621.46  361.55  0. 1.0000     0. 
   7   8   1    211.64  300.11  0. 1.0000     0. 
  -7  -8   1    335.22  374.58  0. 1.0000     0. 
  -7   8  -1    308.89  167.58  0. 1.0000     0. 
  -7   8  -1    262.54  112.26  0. 1.0000     0. 
  -7   8   2   5843.71  416.48  0. 1.0000     0. 
  -7   8   2   6078.70  478.77  0. 1.0000     0. 
   7   8  -2   5441.67  594.00  0. 1.0000     0. 
  -7  -8  -2   5685.16  593.71  0. 1.0000     0. 
   7   8   2   5523.78  558.61  0. 1.0000     0. 
  -7  -8   2   5501.13  596.26  0. 1.0000     0. 
  -7   8  -2   5883.35  399.77  0. 1.0000     0. 
  -7   8  -2   5294.45  348.24  0. 1.0000     0. 
  -7   8   3   8312.56  603.91  0. 1.0000     0. 
  -7   8   3   7825.59  533.41  0. 1.0000     0. 
   7   8  -3   6885.61  610.98  0. 1.0000     0. 
  -7  -8  -3   7491.50  644.96  0. 1.0000     0. 
   7   8   3   7284.82  599.66  0. 1.0000     0. 
  -7   8  -3   8001.12  504.53  0. 1.0000     0. 
  -7   8  -3   7080.97  433.75  0. 1.0000     0. 
  -7   8   4    564.84  169.28  0. 1.0000     0. 
  -7   8   4    638.45  288.22  0. 1.0000     0. 
   7   8  -4    537.94  329.84  0. 1.0000     0. 
  -7  -8  -4    439.98  300.11  0. 1.0000     0. 
   7   8   4    509.91  253.37  0. 1.0000     0. 
  -7   8   5   5220.83  541.62  0. 1.0000     0. 
  -7   8   5   5181.20  431.20  0. 1.0000     0. 
  -7  -8  -5   4195.92  469.42  0. 1.0000     0. 
   7   8   5   4396.94  427.80  0. 1.0000     0. 
  -7   8  -5   3997.73  259.71  0. 1.0000     0. 
  -7  -8  -6   5696.48  530.86  0. 1.0000     0. 
   7   8   6   5099.09  461.49  0. 1.0000     0. 
  -7  -8  -7    388.45  350.79  0. 1.0000     0. 
   7   8   7    175.54  208.63  0. 1.0000     0. 
  -7   9   0     40.29  170.36  0. 1.0000     0. 
  -7   9   1     48.02  199.29  0. 1.0000     0. 
   7  -9  -1    -55.27  417.61  0. 1.0000     0. 
  -7   9  -1     41.48  173.05  0. 1.0000     0. 
   7  -9  -2   1299.55  514.44  0. 1.0000     0. 
  -7   9  -2   1449.32  206.60  0. 1.0000     0. 
  -7   9   3   2845.41  336.64  0. 1.0000     0. 
  -7   9  -3   3154.02  265.57  0. 1.0000     0. 
  -7   9  -3   3448.47  243.04  0. 1.0000     0. 
  -7   9   4     17.56  287.65  0. 1.0000     0. 
  -7   9  -4     34.17   62.43  0. 1.0000     0. 
  -7   9  -4    -29.02  116.53  0. 1.0000     0. 
  -7   9  -5   3105.89  215.77  0. 1.0000     0. 
  -7   9  -5   3383.35  217.87  0. 1.0000     0. 
   7 -10   0    156.31  558.89  0. 1.0000     0. 
  -7  10   0     30.58  236.69  0. 1.0000     0. 
   7 -10   1   2989.80  644.39  0. 1.0000     0. 
  -7  10   1   2716.31  337.20  0. 1.0000     0. 
   7 -10  -1   2324.74  722.54  0. 1.0000     0. 
  -7  10   2   2008.49  352.21  0. 1.0000     0. 
  -7  10  -2   2329.27  260.28  0. 1.0000     0. 
  -7  10  -3    342.02  161.52  0. 1.0000     0. 
  -7  10  -3    236.95  112.46  0. 1.0000     0. 
  -7  10  -4    -19.56   90.37  0. 1.0000     0. 
  -8   0   0 239213.0013106.00  0. 1.0000     0. 
  -8   0   1 112457.01 6225.93  0. 1.0000     0. 
  -8   0   1 108267.01 6005.09  0. 1.0000     0. 
  -8   0  -1 108494.00 5993.77  0. 1.0000     0. 
  -8   0   2  12336.00  823.33  0. 1.0000     0. 
  -8   0  -2  11832.00  718.01  0. 1.0000     0. 
  -8   0   3   1959.79  285.11  0. 1.0000     0. 
  -8   0   3   1968.57  343.15  0. 1.0000     0. 
  -8   0  -3   1844.56  194.08  0. 1.0000     0. 
  -8   0   4   7197.05  600.23  0. 1.0000     0. 
  -8   0   4   7117.77  710.08  0. 1.0000     0. 
  -8   0  -4   6862.96  458.95  0. 1.0000     0. 
  -8   0   5  13188.00  926.39  0. 1.0000     0. 
  -8   0   5  10920.00  980.46  0. 1.0000     0. 
  -8   0  -5  11076.00  670.72  0. 1.0000     0. 
  -8   0  -5  12463.00  733.29  0. 1.0000     0. 
  -8   0   6   6248.58  842.86  0. 1.0000     0. 
  -8   0   6   7947.33  669.31  0. 1.0000     0. 
  -8   0  -6   7559.45  501.13  0. 1.0000     0. 
  -8   0  -6   7511.32  447.62  0. 1.0000     0. 
  -8   0   7  25648.00 1983.86  0. 1.0000     0. 
  -8   0   7  30889.00 1891.56  0. 1.0000     0. 
  -8   0  -7  29077.00 1607.59  0. 1.0000     0. 
  -8   0  -7  28511.00 1605.89  0. 1.0000     0. 
  -8   0   8  70696.01 4077.01  0. 1.0000     0. 
  -8   0   9  47820.00 3394.67  0. 1.0000     0. 
   8   1   0  80068.00 4447.90  0. 1.0000     0. 
  -8  -1   0  80803.99 4493.20  0. 1.0000     0. 
  -8   1   0  82135.00 4631.93  0. 1.0000     0. 
  -8   1   0  85248.99 4736.69  0. 1.0000     0. 
  -8   1   1  50481.00 2941.67  0. 1.0000     0. 
  -8   1   1  51161.00 2910.53  0. 1.0000     0. 
   8   1  -1  48188.00 2733.58  0. 1.0000     0. 
  -8  -1  -1  45980.00 2579.84  0. 1.0000     0. 
   8   1   1  48952.00 2747.17  0. 1.0000     0. 
  -8   1  -1  48528.00 2780.01  0. 1.0000     0. 
  -8   1  -1  48075.00 2688.84  0. 1.0000     0. 
  -8   1   2  11319.00  883.35  0. 1.0000     0. 
  -8  -1  -2   9173.26  583.80  0. 1.0000     0. 
   8   1   2   7030.00  460.93  0. 1.0000     0. 
  -8  -1   2   8411.66  610.14  0. 1.0000     0. 
  -8   1  -2   8363.53  543.88  0. 1.0000     0. 
  -8   1   3  23683.00 1562.29  0. 1.0000     0. 
  -8   1   3  22455.00 1379.67  0. 1.0000     0. 
   8   1  -3  21886.00 1325.59  0. 1.0000     0. 
  -8  -1  -3  22998.00 1356.17  0. 1.0000     0. 
   8   1   3  19247.00 1108.15  0. 1.0000     0. 
  -8  -1   3  21285.00 1304.08  0. 1.0000     0. 
  -8   1  -3  21087.00 1199.89  0. 1.0000     0. 
  -8   1   4  63647.00 3765.57  0. 1.0000     0. 
  -8   1   4  62939.00 3601.36  0. 1.0000     0. 
  -8  -1  -4  62429.00 3473.95  0. 1.0000     0. 
   8   1   4  59456.00 3289.92  0. 1.0000     0. 
  -8  -1   4  60617.00 3445.64  0. 1.0000     0. 
  -8   1  -4  63618.00 3556.06  0. 1.0000     0. 
  -8   1   5  41223.00 2619.19  0. 1.0000     0. 
  -8   1   5  33324.00 1987.26  0. 1.0000     0. 
  -8  -1  -5  34683.00 1944.51  0. 1.0000     0. 
   8   1   5  30125.00 1690.54  0. 1.0000     0. 
  -8  -1   5  31710.00 1969.14  0. 1.0000     0. 
  -8  -1   5  34796.00 2105.60  0. 1.0000     0. 
  -8   1  -5  37203.00 2078.71  0. 1.0000     0. 
  -8   1  -5  33494.00 1863.25  0. 1.0000     0. 
  -8   1   6  10895.00  806.34  0. 1.0000     0. 
  -8   1   6  13330.00 1182.61  0. 1.0000     0. 
   8   1   6   9589.46  565.97  0. 1.0000     0. 
  -8  -1   6   9555.48  878.82  0. 1.0000     0. 
  -8  -1   6  10796.00  813.99  0. 1.0000     0. 
  -8   1  -6  10790.00  612.12  0. 1.0000     0. 
  -8   1  -6  11648.00  674.69  0. 1.0000     0. 
  -8   1   7  10399.00  782.28  0. 1.0000     0. 
  -8   1   7  10082.00  972.25  0. 1.0000     0. 
  -8  -1  -7   9263.86  538.79  0. 1.0000     0. 
  -8  -1   7   8626.83 1083.24  0. 1.0000     0. 
  -8   1   8  26005.00 1928.65  0. 1.0000     0. 
  -8  -1   8  27115.00 1694.51  0. 1.0000     0. 
  -8  -1   8  27089.00 2201.87  0. 1.0000     0. 
  -8   1   9  28964.00 2531.71  0. 1.0000     0. 
  -8  -1   9  25345.00 2456.40  0. 1.0000     0. 
   8   2   0  11631.00  766.70  0. 1.0000     0. 
  -8  -2   0  10872.00  706.40  0. 1.0000     0. 
  -8   2   0  11492.00  735.56  0. 1.0000     0. 
  -8   2   0  11036.00  727.63  0. 1.0000     0. 
  -8   2   1   4119.48  375.14  0. 1.0000     0. 
  -8   2   1   5226.50  462.63  0. 1.0000     0. 
   8   2  -1   4034.54  370.33  0. 1.0000     0. 
  -8  -2  -1   4379.95  353.34  0. 1.0000     0. 
   8   2   1   4159.11  360.14  0. 1.0000     0. 
  -8  -2   1   4303.51  399.77  0. 1.0000     0. 
  -8   2  -1   4207.24  336.92  0. 1.0000     0. 
  -8   2  -1   4949.03  397.51  0. 1.0000     0. 
  -8   2   2  12995.00  878.54  0. 1.0000     0. 
  -8   2   2  11113.00  718.85  0. 1.0000     0. 
   8   2  -2  12613.00  812.00  0. 1.0000     0. 
  -8  -2  -2  12800.00  837.77  0. 1.0000     0. 
   8   2   2  12426.00  787.09  0. 1.0000     0. 
  -8  -2   2  11736.00  804.93  0. 1.0000     0. 
  -8   2  -2  13052.00  821.06  0. 1.0000     0. 
  -8   2  -2  12189.00  738.67  0. 1.0000     0. 
  -8   2   3  71771.99 4034.54  0. 1.0000     0. 
   8   2  -3  73924.00 4153.45  0. 1.0000     0. 
  -8  -2  -3  70102.00 3878.82  0. 1.0000     0. 
   8   2   3  74490.00 4142.12  0. 1.0000     0. 
  -8  -2   3  69168.01 3904.30  0. 1.0000     0. 
  -8   2  -3  67780.00 3745.75  0. 1.0000     0. 
  -8   2   4 149802.00 8346.54  0. 1.0000     0. 
  -8   2   4 146744.02 8142.69  0. 1.0000     0. 
   8   2  -4 143743.02 7964.32  0. 1.0000     0. 
  -8  -2  -4 144309.00 7921.85  0. 1.0000     0. 
  -8  -2   4 142893.00 7941.67  0. 1.0000     0. 
  -8   2  -4 149972.00 8196.48  0. 1.0000     0. 
  -8   2  -4 144507.02 7919.02  0. 1.0000     0. 
  -8   2   5  86212.00 4835.78  0. 1.0000     0. 
  -8   2   5 104303.00 5959.79  0. 1.0000     0. 
   8   2  -5  84908.99 4733.86  0. 1.0000     0. 
  -8  -2  -5  98273.01 5416.19  0. 1.0000     0. 
   8   2   5  91676.01 5053.79  0. 1.0000     0. 
  -8  -2   5  86750.01 4895.24  0. 1.0000     0. 
  -8   2  -5  89439.00 4898.07  0. 1.0000     0. 
  -8   2  -5  96036.00 5277.46  0. 1.0000     0. 
   8   2   6   5353.90  357.87  0. 1.0000     0. 
  -8  -2   6   6486.40  552.09  0. 1.0000     0. 
  -8   2   7    674.69  610.98  0. 1.0000     0. 
  -8   2   7    994.34  254.33  0. 1.0000     0. 
  -8  -2  -7    838.05  140.18  0. 1.0000     0. 
   8   2   7    705.55  110.45  0. 1.0000     0. 
  -8  -2   7    930.63  314.55  0. 1.0000     0. 
  -8   2   8   4187.42  756.51  0. 1.0000     0. 
   8   2   8   5540.76  340.03  0. 1.0000     0. 
  -8  -2   8   4558.32  934.60  0. 1.0000     0. 
  -8  -2  -9   5908.83  349.94  0. 1.0000     0. 
   8   2   9   6489.23  375.99  0. 1.0000     0. 
   8   3   0  44366.00 2548.98  0. 1.0000     0. 
  -8   3   0  44083.00 2497.73  0. 1.0000     0. 
  -8   3   0  42157.00 2370.04  0. 1.0000     0. 
  -8   3   1  25054.00 1462.91  0. 1.0000     0. 
  -8   3   1  30011.00 1750.56  0. 1.0000     0. 
  -8  -3  -1  29162.00 1752.26  0. 1.0000     0. 
   8   3   1  28397.00 1668.46  0. 1.0000     0. 
  -8  -3   1  28273.00 1658.83  0. 1.0000     0. 
  -8   3  -1  29332.00 1705.83  0. 1.0000     0. 
  -8   3  -1  27608.00 1600.79  0. 1.0000     0. 
  -8   3   2   9413.92  632.78  0. 1.0000     0. 
  -8   3   2  11353.00  780.01  0. 1.0000     0. 
   8   3  -2   9691.38  699.32  0. 1.0000     0. 
  -8  -3  -2  10150.00  659.97  0. 1.0000     0. 
   8   3   2   9586.63  629.10  0. 1.0000     0. 
  -8  -3   2   9966.01  684.88  0. 1.0000     0. 
  -8   3  -2  10541.00  667.61  0. 1.0000     0. 
  -8   3  -2  11410.00  726.78  0. 1.0000     0. 
  -8   3   3  30521.00 1825.59  0. 1.0000     0. 
   8   3  -3  31852.00 1903.17  0. 1.0000     0. 
  -8  -3  -3  31059.00 1795.58  0. 1.0000     0. 
   8   3   3  32191.00 1857.02  0. 1.0000     0. 
  -8  -3   3  29926.00 1791.90  0. 1.0000     0. 
  -8   3  -3  31031.00 1782.56  0. 1.0000     0. 
  -8   3  -3  31229.00 1753.11  0. 1.0000     0. 
  -8   3   4  71319.01 4028.87  0. 1.0000     0. 
   8   3  -4  68686.00 3875.99  0. 1.0000     0. 
  -8  -3  -4  69196.00 3844.84  0. 1.0000     0. 
  -8  -3   4  68290.00 3887.31  0. 1.0000     0. 
  -8   3  -4  68743.01 3782.56  0. 1.0000     0. 
  -8   3  -4  62061.00 3400.34  0. 1.0000     0. 
  -8   3   5  31257.00 1864.66  0. 1.0000     0. 
  -8   3   5  36325.00 2226.22  0. 1.0000     0. 
   8   3  -5  31540.00 1868.06  0. 1.0000     0. 
   8   3   5  33267.00 1893.83  0. 1.0000     0. 
  -8  -3   5  32135.00 1952.15  0. 1.0000     0. 
  -8   3  -5  37769.00 2077.57  0. 1.0000     0. 
  -8   3  -5  35108.00 1948.47  0. 1.0000     0. 
  -8   3   6   7565.11  812.57  0. 1.0000     0. 
  -8   3   6   5874.85  503.11  0. 1.0000     0. 
   8   3  -6   5484.14  475.08  0. 1.0000     0. 
  -8  -3  -6   6899.77  457.53  0. 1.0000     0. 
   8   3   6   6240.08  419.03  0. 1.0000     0. 
  -8   3   7   4014.72  426.95  0. 1.0000     0. 
  -8   3   7   4108.15  743.77  0. 1.0000     0. 
  -8  -3  -7   3983.57  295.87  0. 1.0000     0. 
   8   3   7   4258.21  305.77  0. 1.0000     0. 
  -8  -3   7   3989.24  475.93  0. 1.0000     0. 
  -8   3   8  15249.00 1372.03  0. 1.0000     0. 
  -8  -3  -8  17659.00 1013.31  0. 1.0000     0. 
   8   3   8  17531.00 1001.41  0. 1.0000     0. 
  -8  -3   8  13358.00 1287.94  0. 1.0000     0. 
  -8  -3  -9  17970.00 1020.95  0. 1.0000     0. 
   8   3   9  19354.00 1093.15  0. 1.0000     0. 
  -8  -3 -10   4006.22  395.24  0. 1.0000     0. 
   8   4   0 149547.00 8270.09  0. 1.0000     0. 
  -8   4   0 150340.00 8261.60  0. 1.0000     0. 
  -8   4   0 155096.00 8581.53  0. 1.0000     0. 
  -8   4   1  77009.99 4377.12  0. 1.0000     0. 
  -8   4   1  66534.01 3711.77  0. 1.0000     0. 
  -8  -4  -1  69960.01 3915.62  0. 1.0000     0. 
   8   4   1  71999.00 4051.52  0. 1.0000     0. 
  -8  -4   1  77152.00 4399.77  0. 1.0000     0. 
  -8   4  -1  66648.01 3697.62  0. 1.0000     0. 
  -8   4  -1  75113.00 4127.97  0. 1.0000     0. 
  -8   4   2   9210.07  609.57  0. 1.0000     0. 
  -8   4   2  12305.00  890.15  0. 1.0000     0. 
   8   4  -2   9883.91  716.02  0. 1.0000     0. 
  -8  -4  -2  10173.00  702.15  0. 1.0000     0. 
   8   4   2   9127.96  617.50  0. 1.0000     0. 
  -8  -4   2  10040.00  714.33  0. 1.0000     0. 
  -8   4  -2  10595.00  622.59  0. 1.0000     0. 
  -8   4   3   2950.17  466.02  0. 1.0000     0. 
  -8   4   3   2169.31  253.43  0. 1.0000     0. 
   8   4  -3   2320.78  316.53  0. 1.0000     0. 
  -8  -4  -3   2572.19  302.94  0. 1.0000     0. 
   8   4   3   2290.77  251.87  0. 1.0000     0. 
  -8  -4   3   2183.75  321.06  0. 1.0000     0. 
  -8   4  -3   2519.82  207.22  0. 1.0000     0. 
  -8   4  -3   2398.07  227.63  0. 1.0000     0. 
  -8   4   4   6466.58  688.28  0. 1.0000     0. 
   8   4  -4   5721.96  512.17  0. 1.0000     0. 
  -8  -4  -4   5523.78  434.88  0. 1.0000     0. 
   8   4   4   5897.50  442.81  0. 1.0000     0. 
  -8  -4   4   5450.16  507.64  0. 1.0000     0. 
  -8   4  -4   5863.53  358.44  0. 1.0000     0. 
  -8   4  -4   5484.14  342.02  0. 1.0000     0. 
  -8   4   5   8737.25  631.94  0. 1.0000     0. 
  -8   4   5   7941.67  830.97  0. 1.0000     0. 
   8   4  -5   9374.28  697.34  0. 1.0000     0. 
   8   4   5   8799.54  579.28  0. 1.0000     0. 
  -8  -4   5   8462.62  665.63  0. 1.0000     0. 
  -8   4  -5   8335.21  475.93  0. 1.0000     0. 
  -8   4  -5   7565.11  432.33  0. 1.0000     0. 
  -8   4   6   4824.46  438.56  0. 1.0000     0. 
  -8   4   6   5031.14  797.28  0. 1.0000     0. 
   8   4  -6   4612.11  402.32  0. 1.0000     0. 
  -8  -4  -6   4626.27  354.47  0. 1.0000     0. 
   8   4   6   4759.34  341.45  0. 1.0000     0. 
  -8  -4   6   4881.08  510.76  0. 1.0000     0. 
  -8   4   7  17055.00 1094.56  0. 1.0000     0. 
  -8   4   7  19488.00 1647.22  0. 1.0000     0. 
   8   4  -7  21631.00 1361.55  0. 1.0000     0. 
  -8  -4  -7  19386.00 1117.21  0. 1.0000     0. 
   8   4   7  21645.00 1247.73  0. 1.0000     0. 
  -8  -4  -8  47508.00 2641.84  0. 1.0000     0. 
   8   4   8  48698.00 2708.94  0. 1.0000     0. 
  -8  -4  -9  31002.00 1743.49  0. 1.0000     0. 
   8   4   9  30974.00 1745.47  0. 1.0000     0. 
  -8  -4 -10   3369.19  263.31  0. 1.0000     0. 
   8   5   0  68884.00 3890.14  0. 1.0000     0. 
  -8  -5   0  69393.99 3921.29  0. 1.0000     0. 
  -8   5   0  62826.00 3471.12  0. 1.0000     0. 
  -8   5   0  67129.00 3728.76  0. 1.0000     0. 
  -8   5   1  36976.00 2099.94  0. 1.0000     0. 
  -8   5   1  34145.00 1922.42  0. 1.0000     0. 
   8   5  -1  39722.00 2340.03  0. 1.0000     0. 
  -8  -5  -1  35872.00 2114.10  0. 1.0000     0. 
   8   5   1  38590.00 2263.87  0. 1.0000     0. 
  -8  -5   1  37939.00 2232.44  0. 1.0000     0. 
  -8   5   2   6005.09  430.07  0. 1.0000     0. 
  -8   5   2   5308.60  403.45  0. 1.0000     0. 
   8   5  -2   6152.32  516.70  0. 1.0000     0. 
  -8  -5  -2   5724.80  485.56  0. 1.0000     0. 
   8   5   2   5611.55  439.41  0. 1.0000     0. 
  -8  -5   2   6704.41  632.50  0. 1.0000     0. 
  -8   5  -2   5065.11  342.58  0. 1.0000     0. 
  -8   5  -2   6667.60  425.54  0. 1.0000     0. 
  -8   5   3   5852.20  442.52  0. 1.0000     0. 
  -8   5   3   6251.41  453.28  0. 1.0000     0. 
   8   5  -3   5838.05  515.85  0. 1.0000     0. 
  -8  -5  -3   6744.05  526.05  0. 1.0000     0. 
   8   5   3   6500.56  491.22  0. 1.0000     0. 
  -8  -5   3   6577.00  665.63  0. 1.0000     0. 
  -8   5  -3   6180.63  388.17  0. 1.0000     0. 
  -8   5  -3   6797.84  417.61  0. 1.0000     0. 
  -8   5   4  19768.00 1207.53  0. 1.0000     0. 
  -8   5   4  18264.00 1091.73  0. 1.0000     0. 
   8   5  -4  20164.00 1289.64  0. 1.0000     0. 
  -8  -5  -4  20190.00 1216.02  0. 1.0000     0. 
   8   5   4  20626.00 1253.68  0. 1.0000     0. 
  -8  -5   4  19827.00 1272.37  0. 1.0000     0. 
  -8   5  -4  20917.00 1181.77  0. 1.0000     0. 
  -8   5  -4  21484.00 1199.32  0. 1.0000     0. 
  -8   5   5  12857.00  847.68  0. 1.0000     0. 
  -8   5   5  14071.00  894.11  0. 1.0000     0. 
   8   5  -5  14454.00 1000.85  0. 1.0000     0. 
   8   5   5  14400.00  907.70  0. 1.0000     0. 
  -8   5  -5  14465.00  813.70  0. 1.0000     0. 
  -8   5  -5  12950.00  731.03  0. 1.0000     0. 
  -8   5   6   8091.72  625.99  0. 1.0000     0. 
  -8   5   6   8666.47  641.56  0. 1.0000     0. 
  -8  -5  -6   7740.65  530.29  0. 1.0000     0. 
   8   5   6   8822.19  583.24  0. 1.0000     0. 
  -8   5   7  10048.00  797.28  0. 1.0000     0. 
  -8  -5  -7   9923.55  633.64  0. 1.0000     0. 
   8   5   7  11501.00  716.87  0. 1.0000     0. 
   8   5   8  22732.00 1315.12  0. 1.0000     0. 
  -8  -5  -9  15725.00  949.32  0. 1.0000     0. 
   8   5   9  15071.00  901.19  0. 1.0000     0. 
   8   6   0   6588.33  552.94  0. 1.0000     0. 
  -8  -6   0   6121.17  571.63  0. 1.0000     0. 
  -8   6   1   3063.42  291.90  0. 1.0000     0. 
  -8   6   1   3267.27  290.20  0. 1.0000     0. 
   8   6  -1   3069.08  385.62  0. 1.0000     0. 
  -8  -6  -1   2851.07  430.07  0. 1.0000     0. 
   8   6   1   3063.42  342.58  0. 1.0000     0. 
  -8  -6   1   3131.37  488.67  0. 1.0000     0. 
  -8   6  -1   2950.17  243.29  0. 1.0000     0. 
  -8   6  -1   3111.55  264.55  0. 1.0000     0. 
  -8   6   2   5781.42  422.42  0. 1.0000     0. 
  -8   6   2   5939.97  438.84  0. 1.0000     0. 
   8   6  -2   5571.91  513.59  0. 1.0000     0. 
  -8  -6  -2   6152.32  550.96  0. 1.0000     0. 
   8   6   2   5804.07  505.95  0. 1.0000     0. 
  -8  -6   2   5509.62  518.12  0. 1.0000     0. 
  -8   6  -2   5838.05  381.37  0. 1.0000     0. 
  -8   6  -2   5458.66  357.02  0. 1.0000     0. 
  -8   6   3  29728.00 1722.25  0. 1.0000     0. 
  -8   6   3  29247.00 1694.79  0. 1.0000     0. 
   8   6  -3  28652.00 1758.49  0. 1.0000     0. 
  -8  -6  -3  29445.00 1742.64  0. 1.0000     0. 
   8   6   3  29643.00 1748.02  0. 1.0000     0. 
  -8  -6   3  28596.00 1785.96  0. 1.0000     0. 
  -8   6  -3  28061.00 1570.78  0. 1.0000     0. 
  -8   6  -3  28052.00 1565.12  0. 1.0000     0. 
  -8   6   4  55521.00 3137.03  0. 1.0000     0. 
  -8   6   4  57191.00 3221.97  0. 1.0000     0. 
   8   6  -4  57843.00 3340.88  0. 1.0000     0. 
  -8  -6  -4  61268.00 3456.96  0. 1.0000     0. 
   8   6   4  59428.00 3352.21  0. 1.0000     0. 
  -8  -6   4  56993.00 3380.52  0. 1.0000     0. 
  -8   6  -4  57333.00 3151.19  0. 1.0000     0. 
  -8   6  -4  57644.00 3179.50  0. 1.0000     0. 
  -8   6   5  37826.00 2191.11  0. 1.0000     0. 
  -8   6   5  40402.00 2335.78  0. 1.0000     0. 
   8   6  -5  38137.00 2294.17  0. 1.0000     0. 
   8   6   5  39269.00 2261.61  0. 1.0000     0. 
  -8   6  -5  39779.00 2192.81  0. 1.0000     0. 
  -8   6  -5  37118.00 2048.41  0. 1.0000     0. 
  -8   6   6   5413.36  545.02  0. 1.0000     0. 
  -8  -6  -6   4968.85  421.57  0. 1.0000     0. 
   8   6   6   4280.86  374.86  0. 1.0000     0. 
  -8  -6  -7    704.98  244.59  0. 1.0000     0. 
   8   6   7    891.00  217.58  0. 1.0000     0. 
   8   6   8   2346.54  263.25  0. 1.0000     0. 
  -8  -7   0   8816.53  753.96  0. 1.0000     0. 
  -8   7   0   9575.30  607.59  0. 1.0000     0. 
  -8   7   0   8120.04  529.16  0. 1.0000     0. 
  -8   7   1   7358.43  512.74  0. 1.0000     0. 
   8   7  -1   6285.38  563.99  0. 1.0000     0. 
   8   7   1   7148.92  629.95  0. 1.0000     0. 
  -8  -7   1   6390.14  645.24  0. 1.0000     0. 
  -8   7  -1   6755.37  441.68  0. 1.0000     0. 
  -8   7  -1   6489.23  428.09  0. 1.0000     0. 
  -8   7   2   5441.67  407.42  0. 1.0000     0. 
  -8   7   2   5889.01  469.14  0. 1.0000     0. 
   8   7  -2   5257.64  520.67  0. 1.0000     0. 
  -8  -7  -2   4951.86  527.18  0. 1.0000     0. 
   8   7   2   5096.26  474.23  0. 1.0000     0. 
  -8   7  -2   5059.45  338.62  0. 1.0000     0. 
  -8   7  -2   4985.84  339.47  0. 1.0000     0. 
  -8   7   3  17659.00 1097.11  0. 1.0000     0. 
  -8   7   3  19015.00 1141.00  0. 1.0000     0. 
   8   7  -3  18465.00 1246.04  0. 1.0000     0. 
  -8  -7  -3  16574.00 1086.92  0. 1.0000     0. 
   8   7   3  18157.00 1167.04  0. 1.0000     0. 
  -8   7  -3  18952.00 1088.62  0. 1.0000     0. 
  -8   7  -3  17520.00  993.49  0. 1.0000     0. 
  -8   7   4  33975.00 1971.12  0. 1.0000     0. 
  -8   7   4  34343.00 2005.66  0. 1.0000     0. 
  -8  -7  -4  32220.00 1902.04  0. 1.0000     0. 
   8   7   4  30917.00 1859.28  0. 1.0000     0. 
  -8   7  -4  35136.00 1956.11  0. 1.0000     0. 
  -8   7  -4  31682.00 1755.94  0. 1.0000     0. 
  -8   7   5  17701.00 1176.39  0. 1.0000     0. 
   8   7   5  13817.00  903.17  0. 1.0000     0. 
  -8   7  -5  14204.00  801.24  0. 1.0000     0. 
  -8   7  -5  13146.00  742.92  0. 1.0000     0. 
  -8  -7  -6   1987.54  330.97  0. 1.0000     0. 
   8   7   6   1786.24  243.40  0. 1.0000     0. 
  -8  -7  -7    652.04  273.44  0. 1.0000     0. 
  -8   8   0  37599.00 2112.12  0. 1.0000     0. 
  -8   8   0  37174.00 2082.67  0. 1.0000     0. 
  -8   8   1  20357.00 1194.79  0. 1.0000     0. 
  -8   8   1  19924.00 1146.66  0. 1.0000     0. 
  -8   8  -1  20348.00 1171.57  0. 1.0000     0. 
  -8   8  -1  19403.00 1123.72  0. 1.0000     0. 
  -8   8   2   4139.29  381.65  0. 1.0000     0. 
  -8   8   2   3986.41  307.76  0. 1.0000     0. 
  -8   8   3   1766.42  218.35  0. 1.0000     0. 
  -8   8  -3   1385.90  168.57  0. 1.0000     0. 
  -8   8  -3   1515.57  136.38  0. 1.0000     0. 
  -8   8   4   2200.17  439.13  0. 1.0000     0. 
  -8   8  -4   2256.23  162.74  0. 1.0000     0. 
  -8   8  -4   2242.64  188.76  0. 1.0000     0. 
  -8   9   0  22256.00 1278.88  0. 1.0000     0. 
  -8   9   0  20051.00 1193.09  0. 1.0000     0. 
  -8   9   1  11988.00  772.65  0. 1.0000     0. 
  -8   9   1  13757.00  831.82  0. 1.0000     0. 
  -8   9  -1  12016.00  744.62  0. 1.0000     0. 
  -8   9  -1  13199.00  776.05  0. 1.0000     0. 
  -8   9   2   2082.95  315.12  0. 1.0000     0. 
  -8   9  -2   2237.26  202.60  0. 1.0000     0. 
  -8   9  -2   2319.93  244.28  0. 1.0000     0. 
  -8   9  -3   1128.54  180.35  0. 1.0000     0. 
  -8   9  -3   1246.60  151.22  0. 1.0000     0. 
  -9   0   0     38.02  172.85  0. 1.0000     0. 
  -9   0   0     87.54  263.19  0. 1.0000     0. 
  -9   0   1   1062.57  354.19  0. 1.0000     0. 
  -9   0   1   1146.37  225.88  0. 1.0000     0. 
  -9   0  -1   1417.33  215.68  0. 1.0000     0. 
  -9   0  -1   1270.10  286.24  0. 1.0000     0. 
  -9   0   2  14915.00 1083.24  0. 1.0000     0. 
  -9   0   2  18819.00 1151.75  0. 1.0000     0. 
  -9   0  -2  18814.00 1096.54  0. 1.0000     0. 
  -9   0   3  25413.00 1749.72  0. 1.0000     0. 
  -9   0  -3  25311.00 1488.67  0. 1.0000     0. 
  -9   0  -3  26317.00 1509.62  0. 1.0000     0. 
  -9   0   4   2195.35  635.90  0. 1.0000     0. 
  -9   0   4   1638.45  302.94  0. 1.0000     0. 
  -9   0  -4   1887.03  186.41  0. 1.0000     0. 
  -9   0  -4   1916.48  275.54  0. 1.0000     0. 
  -9   0   5  17339.00 1119.76  0. 1.0000     0. 
  -9   0  -5  15578.00  898.64  0. 1.0000     0. 
  -9   0   6  15790.00 1504.25  0. 1.0000     0. 
  -9   0   6  19448.00 1254.81  0. 1.0000     0. 
  -9   0  -6  19054.00 1073.89  0. 1.0000     0. 
  -9   0   7     68.06  818.52  0. 1.0000     0. 
  -9   0  -7    143.49   67.75  0. 1.0000     0. 
  -9   0  -7    154.61  140.03  0. 1.0000     0. 
   9   1   0     48.75  100.20  0. 1.0000     0. 
  -9  -1   0    100.79  178.71  0. 1.0000     0. 
  -9   1   0     41.25  137.26  0. 1.0000     0. 
  -9   1   0     79.36  319.65  0. 1.0000     0. 
  -9   1   1   4204.41  396.66  0. 1.0000     0. 
  -9   1   1   2859.57  476.78  0. 1.0000     0. 
   9   1  -1   3292.75  288.22  0. 1.0000     0. 
  -9  -1  -1   3570.21  313.42  0. 1.0000     0. 
   9   1   1   3822.19  294.17  0. 1.0000     0. 
  -9  -1   1   3513.59  360.98  0. 1.0000     0. 
  -9   1  -1   3298.41  297.57  0. 1.0000     0. 
  -9   1  -1   3233.29  435.16  0. 1.0000     0. 
  -9   1   2    131.06  193.03  0. 1.0000     0. 
  -9   1   2    -78.17  413.08  0. 1.0000     0. 
  -9  -1  -2      4.83  153.17  0. 1.0000     0. 
  -9  -1   2    -23.21  191.39  0. 1.0000     0. 
  -9   1  -2     38.96  277.21  0. 1.0000     0. 
  -9   1   3   7652.88  607.87  0. 1.0000     0. 
  -9   1   3   6845.97  830.41  0. 1.0000     0. 
   9   1   3   7998.29  495.19  0. 1.0000     0. 
  -9  -1   3   7109.28  564.84  0. 1.0000     0. 
  -9   1  -3   7092.29  451.02  0. 1.0000     0. 
  -9   1  -3   6976.21  572.20  0. 1.0000     0. 
  -9   1   4    138.73  223.92  0. 1.0000     0. 
  -9   1   4    343.15  623.44  0. 1.0000     0. 
  -9  -1  -4    182.30  151.22  0. 1.0000     0. 
   9   1   4    -13.01   77.46  0. 1.0000     0. 
  -9  -1   4    306.91  466.87  0. 1.0000     0. 
  -9  -1   4    123.98  210.50  0. 1.0000     0. 
  -9   1  -4    248.64  131.43  0. 1.0000     0. 
  -9   1  -4     87.17  178.11  0. 1.0000     0. 
  -9   1   5   2661.38  691.96  0. 1.0000     0. 
  -9   1   5   4241.22  448.19  0. 1.0000     0. 
  -9  -1  -5   3369.19  264.16  0. 1.0000     0. 
  -9  -1   5   1855.32  610.14  0. 1.0000     0. 
  -9   1  -5   2497.45  286.81  0. 1.0000     0. 
  -9   1   6    821.35  301.24  0. 1.0000     0. 
  -9   1   6    467.44  598.81  0. 1.0000     0. 
  -9  -1  -6    608.15  129.30  0. 1.0000     0. 
  -9  -1   6    804.08  273.84  0. 1.0000     0. 
  -9  -1   6    507.08  706.40  0. 1.0000     0. 
  -9   1  -6    172.23  133.01  0. 1.0000     0. 
  -9   1   7   1078.14  693.09  0. 1.0000     0. 
  -9  -1  -7    924.69  202.01  0. 1.0000     0. 
  -9  -1   7    655.44  953.28  0. 1.0000     0. 
  -9  -1  -8   1558.61  235.33  0. 1.0000     0. 
  -9  -1  -8   1605.32  134.97  0. 1.0000     0. 
   9   2   0     20.01  113.79  0. 1.0000     0. 
  -9  -2   0    186.64  193.40  0. 1.0000     0. 
  -9   2   0     68.49  251.95  0. 1.0000     0. 
  -9   2   0      2.66  160.08  0. 1.0000     0. 
  -9   2   1  28907.00 1749.15  0. 1.0000     0. 
  -9   2   1  30946.00 1815.68  0. 1.0000     0. 
   9   2  -1  30946.00 1798.70  0. 1.0000     0. 
  -9  -2  -1  29473.00 1692.24  0. 1.0000     0. 
   9   2   1  32248.00 1838.05  0. 1.0000     0. 
  -9  -2   1  29162.00 1702.15  0. 1.0000     0. 
  -9   2  -1  29672.00 1696.49  0. 1.0000     0. 
  -9   2   2  25263.00 1586.63  0. 1.0000     0. 
  -9   2   2  22619.00 1356.74  0. 1.0000     0. 
   9   2  -2  22121.00 1342.86  0. 1.0000     0. 
  -9  -2  -2  23420.00 1400.90  0. 1.0000     0. 
  -9   2  -2  25059.00 1519.53  0. 1.0000     0. 
  -9   2  -2  21552.00 1251.98  0. 1.0000     0. 
  -9   2   3   1848.81  447.05  0. 1.0000     0. 
  -9   2   3   1479.05  283.10  0. 1.0000     0. 
   9   2   3   1256.51  165.91  0. 1.0000     0. 
  -9  -2   3   1637.31  298.41  0. 1.0000     0. 
  -9   2  -3   1515.00  173.16  0. 1.0000     0. 
  -9   2  -3   1409.96  225.91  0. 1.0000     0. 
  -9   2   4   1014.72  518.69  0. 1.0000     0. 
   9   2  -4   1605.89  240.66  0. 1.0000     0. 
  -9  -2  -4   1585.79  218.21  0. 1.0000     0. 
   9   2   4   1776.33  176.44  0. 1.0000     0. 
  -9  -2   4   1535.96  309.17  0. 1.0000     0. 
  -9   2  -4   1377.41  216.39  0. 1.0000     0. 
  -9   2  -4   1451.58  146.57  0. 1.0000     0. 
  -9   2   5   1253.96  288.79  0. 1.0000     0. 
  -9  -2  -5   1074.74  172.17  0. 1.0000     0. 
   9   2   5    875.14  118.74  0. 1.0000     0. 
  -9  -2   5    844.56  275.03  0. 1.0000     0. 
  -9   2  -5   1021.52  124.63  0. 1.0000     0. 
  -9   2  -5    822.48  142.50  0. 1.0000     0. 
  -9   2   6   4037.37  429.22  0. 1.0000     0. 
  -9   2   6   3250.28  875.42  0. 1.0000     0. 
  -9  -2  -6   4357.30  311.72  0. 1.0000     0. 
  -9  -2   6   1865.80  639.86  0. 1.0000     0. 
  -9   2   7  11812.00 1358.44  0. 1.0000     0. 
  -9  -2  -7  10515.00  614.66  0. 1.0000     0. 
   9   2   7  10991.00  643.26  0. 1.0000     0. 
  -9  -2  -8   1212.06  155.44  0. 1.0000     0. 
   9   3   0     33.15  145.16  0. 1.0000     0. 
  -9  -3   0    154.53  241.82  0. 1.0000     0. 
  -9   3   0    103.40  150.26  0. 1.0000     0. 
  -9   3   0    -16.25  235.56  0. 1.0000     0. 
  -9   3   1   7075.30  519.53  0. 1.0000     0. 
  -9   3   1   6245.75  535.67  0. 1.0000     0. 
   9   3  -1   7548.12  558.32  0. 1.0000     0. 
  -9  -3  -1   7460.35  578.99  0. 1.0000     0. 
   9   3   1   7766.13  548.98  0. 1.0000     0. 
  -9  -3   1   6610.98  530.29  0. 1.0000     0. 
  -9   3  -1   6599.65  526.33  0. 1.0000     0. 
  -9   3   2   1969.70  236.35  0. 1.0000     0. 
  -9   3   2   1215.46  350.23  0. 1.0000     0. 
   9   3  -2   2327.01  289.92  0. 1.0000     0. 
  -9  -3  -2   1680.35  241.51  0. 1.0000     0. 
   9   3   2   2166.19  236.15  0. 1.0000     0. 
  -9  -3   2   1642.41  317.67  0. 1.0000     0. 
  -9   3  -2   1223.95  244.82  0. 1.0000     0. 
  -9   3  -2   1802.94  194.20  0. 1.0000     0. 
  -9   3   3   2969.99  298.98  0. 1.0000     0. 
  -9   3   3   2378.54  441.68  0. 1.0000     0. 
  -9  -3  -3   2806.62  308.04  0. 1.0000     0. 
   9   3   3   3003.96  277.83  0. 1.0000     0. 
  -9  -3   3   2742.92  364.95  0. 1.0000     0. 
  -9   3  -3   2697.34  222.79  0. 1.0000     0. 
  -9   3  -3   2505.09  266.90  0. 1.0000     0. 
  -9   3   4    588.33  438.56  0. 1.0000     0. 
  -9   3   4    400.62  192.47  0. 1.0000     0. 
   9   3  -4    338.05  198.70  0. 1.0000     0. 
  -9  -3  -4    559.46  193.77  0. 1.0000     0. 
   9   3   4    545.58  136.89  0. 1.0000     0. 
  -9  -3   4    472.25  298.13  0. 1.0000     0. 
  -9   3  -4    417.61   99.35  0. 1.0000     0. 
  -9   3  -4    376.84   95.89  0. 1.0000     0. 
  -9   3   5    -28.00  467.16  0. 1.0000     0. 
   9   3  -5    671.57  203.51  0. 1.0000     0. 
  -9  -3  -5    512.17  170.90  0. 1.0000     0. 
   9   3   5    759.06  139.69  0. 1.0000     0. 
  -9  -3   5    687.71  292.75  0. 1.0000     0. 
  -9   3  -5    278.62   92.10  0. 1.0000     0. 
  -9   3   6    128.85  195.02  0. 1.0000     0. 
   9   3  -6     30.89  182.84  0. 1.0000     0. 
  -9  -3  -6     59.85  150.82  0. 1.0000     0. 
  -9  -3  -7   1230.46  171.35  0. 1.0000     0. 
   9   3   7   2020.95  185.48  0. 1.0000     0. 
  -9  -3  -8    768.97  172.74  0. 1.0000     0. 
   9   3   8    379.67   87.46  0. 1.0000     0. 
   9   4   0      1.90  154.02  0. 1.0000     0. 
  -9  -4   0    117.36  265.17  0. 1.0000     0. 
  -9   4   0   -113.50  233.15  0. 1.0000     0. 
  -9   4   1    382.22  158.72  0. 1.0000     0. 
  -9   4   1    927.52  363.53  0. 1.0000     0. 
   9   4  -1    580.97  213.45  0. 1.0000     0. 
  -9  -4  -1    745.75  231.91  0. 1.0000     0. 
   9   4   1    608.44  165.74  0. 1.0000     0. 
  -9  -4   1    766.70  359.85  0. 1.0000     0. 
  -9   4  -1    594.00  160.39  0. 1.0000     0. 
  -9   4  -1    625.42  135.50  0. 1.0000     0. 
  -9   4   2  12718.00  983.01  0. 1.0000     0. 
  -9   4   2  10937.00  698.75  0. 1.0000     0. 
   9   4  -2  11348.00  793.88  0. 1.0000     0. 
  -9  -4  -2  11540.00  778.59  0. 1.0000     0. 
   9   4   2  10801.00  698.47  0. 1.0000     0. 
  -9  -4   2  11738.00  817.95  0. 1.0000     0. 
  -9   4  -2  10453.00  616.93  0. 1.0000     0. 
  -9   4  -2  12064.00  739.52  0. 1.0000     0. 
  -9   4   3  16679.00 1195.64  0. 1.0000     0. 
  -9   4   3  13961.00  877.41  0. 1.0000     0. 
   9   4  -3  15006.00 1004.25  0. 1.0000     0. 
  -9  -4  -3  16359.00 1018.69  0. 1.0000     0. 
   9   4   3  14216.00  867.50  0. 1.0000     0. 
  -9  -4   3  15764.00 1054.36  0. 1.0000     0. 
  -9   4  -3  14926.00  851.08  0. 1.0000     0. 
  -9   4  -3  15045.00  869.20  0. 1.0000     0. 
  -9   4   4   1413.36  465.46  0. 1.0000     0. 
  -9   4   4    835.50  194.71  0. 1.0000     0. 
   9   4  -4   1052.94  250.28  0. 1.0000     0. 
  -9  -4  -4   1428.93  248.07  0. 1.0000     0. 
   9   4   4    940.54  161.35  0. 1.0000     0. 
  -9  -4   4   1503.96  336.07  0. 1.0000     0. 
  -9   4  -4    937.99  121.18  0. 1.0000     0. 
  -9   4   5  10246.00  723.39  0. 1.0000     0. 
  -9   4   5   8145.52  900.06  0. 1.0000     0. 
   9   4  -5  10668.00  759.06  0. 1.0000     0. 
  -9  -4  -5   9847.10  640.15  0. 1.0000     0. 
  -9   4  -5   8541.89  486.41  0. 1.0000     0. 
  -9   4  -5   9272.36  536.52  0. 1.0000     0. 
  -9   4   6  12126.00 1286.81  0. 1.0000     0. 
  -9  -4  -6  10430.00  650.62  0. 1.0000     0. 
  -9  -4  -7    100.82  166.20  0. 1.0000     0. 
   9   4   7     97.99   94.93  0. 1.0000     0. 
  -9  -4  -8    377.12  189.27  0. 1.0000     0. 
   9   4   8    538.50  122.54  0. 1.0000     0. 
   9   5   0    116.51  158.98  0. 1.0000     0. 
  -9  -5   0    -95.81  268.63  0. 1.0000     0. 
  -9   5   0    178.06  149.29  0. 1.0000     0. 
  -9   5   0     67.87  113.87  0. 1.0000     0. 
  -9   5   1    135.14  169.22  0. 1.0000     0. 
   9   5  -1    216.51  202.32  0. 1.0000     0. 
  -9  -5  -1    203.48  231.31  0. 1.0000     0. 
   9   5   1    123.58  155.69  0. 1.0000     0. 
  -9   5  -1    178.51  112.17  0. 1.0000     0. 
  -9   5  -1     79.13  141.31  0. 1.0000     0. 
  -9   5   2    826.44  211.95  0. 1.0000     0. 
  -9   5   2   1011.89  180.41  0. 1.0000     0. 
  -9  -5  -2    893.54  271.32  0. 1.0000     0. 
   9   5   2   1075.59  219.99  0. 1.0000     0. 
  -9  -5   2    843.71  328.99  0. 1.0000     0. 
  -9   5  -2   1057.47  161.41  0. 1.0000     0. 
  -9   5  -2    828.71  145.75  0. 1.0000     0. 
  -9   5   3   5736.12  424.97  0. 1.0000     0. 
  -9   5   3   4411.09  383.35  0. 1.0000     0. 
   9   5  -3   6039.07  541.90  0. 1.0000     0. 
  -9  -5  -3   5201.01  452.15  0. 1.0000     0. 
   9   5   3   5656.85  439.69  0. 1.0000     0. 
  -9  -5   3   4227.06  577.29  0. 1.0000     0. 
  -9   5  -3   4815.96  317.95  0. 1.0000     0. 
  -9   5  -3   5645.52  374.01  0. 1.0000     0. 
  -9   5   4      0.44  148.87  0. 1.0000     0. 
  -9   5   4    -30.72  209.51  0. 1.0000     0. 
   9   5  -4     23.03  233.12  0. 1.0000     0. 
  -9  -5  -4     35.96  195.13  0. 1.0000     0. 
   9   5   4    -34.37  138.36  0. 1.0000     0. 
  -9   5  -4    -15.25   75.00  0. 1.0000     0. 
  -9   5  -4    -32.30   87.88  0. 1.0000     0. 
  -9   5   5   3001.13  368.91  0. 1.0000     0. 
  -9  -5  -5   3776.89  358.44  0. 1.0000     0. 
   9   5   5   4549.83  351.64  0. 1.0000     0. 
  -9   5  -5   3989.24  241.79  0. 1.0000     0. 
  -9   5  -5   3734.42  224.01  0. 1.0000     0. 
  -9  -5  -6   1187.99  219.22  0. 1.0000     0. 
  -9  -5  -7    214.30  202.55  0. 1.0000     0. 
   9   5   7    394.11  138.19  0. 1.0000     0. 
  -9  -5  -8    992.35  264.27  0. 1.0000     0. 
   9   6   0     24.34  221.57  0. 1.0000     0. 
  -9  -6   0     66.00  299.83  0. 1.0000     0. 
  -9   6   0     39.44  109.65  0. 1.0000     0. 
  -9   6   0     -9.61  175.28  0. 1.0000     0. 
  -9   6   1  10524.00  670.72  0. 1.0000     0. 
  -9   6   1  10719.00  667.04  0. 1.0000     0. 
   9   6  -1  11234.00  819.65  0. 1.0000     0. 
  -9  -6  -1  10730.00  796.72  0. 1.0000     0. 
   9   6   1  11342.00  774.35  0. 1.0000     0. 
  -9   6  -1  10436.00  635.05  0. 1.0000     0. 
  -9   6  -1  11908.00  719.71  0. 1.0000     0. 
  -9   6   2   7936.01  550.40  0. 1.0000     0. 
  -9  -6  -2   8204.97  650.62  0. 1.0000     0. 
   9   6   2   7516.98  561.44  0. 1.0000     0. 
  -9   6  -2   7420.72  468.01  0. 1.0000     0. 
  -9   6  -2   8958.09  555.49  0. 1.0000     0. 
  -9   6   3    653.74  280.69  0. 1.0000     0. 
  -9   6   3    576.16  171.63  0. 1.0000     0. 
  -9  -6  -3    489.24  278.93  0. 1.0000     0. 
   9   6   3    565.12  218.71  0. 1.0000     0. 
  -9   6  -3    581.54  115.83  0. 1.0000     0. 
  -9   6  -3    547.56  109.97  0. 1.0000     0. 
  -9   6   4    319.08  262.60  0. 1.0000     0. 
  -9   6   4    251.81  155.61  0. 1.0000     0. 
  -9  -6  -4    168.06  257.93  0. 1.0000     0. 
   9   6   4    259.12  179.84  0. 1.0000     0. 
  -9   6  -4    182.81   80.52  0. 1.0000     0. 
  -9  -6  -5    278.51  235.45  0. 1.0000     0. 
   9   6   5    324.46  165.20  0. 1.0000     0. 
  -9   6  -5    204.81   53.03  0. 1.0000     0. 
  -9   6  -5    245.81   64.61  0. 1.0000     0. 
  -9  -6  -6   1580.97  291.05  0. 1.0000     0. 
   9   6   6   1539.35  216.90  0. 1.0000     0. 
  -9   7   0    -23.25  104.61  0. 1.0000     0. 
  -9   7   0    -46.55  190.49  0. 1.0000     0. 
  -9   7   1   4150.62  372.03  0. 1.0000     0. 
  -9   7   1   3757.07  294.73  0. 1.0000     0. 
  -9   7  -1   3921.29  280.97  0. 1.0000     0. 
  -9   7   2   2369.19  336.07  0. 1.0000     0. 
  -9   7   2   2665.06  258.44  0. 1.0000     0. 
  -9   7  -2   1885.62  192.55  0. 1.0000     0. 
  -9   7  -2   2406.28  194.08  0. 1.0000     0. 
  -9   7   3     82.90  288.51  0. 1.0000     0. 
  -9   7  -3    127.55   77.52  0. 1.0000     0. 
  -9   7  -3    100.37  106.82  0. 1.0000     0. 
  -9   7  -4    199.01   99.66  0. 1.0000     0. 
  -9   7  -4    366.36   85.16  0. 1.0000     0. 
  -9   8   0     23.70  134.68  0. 1.0000     0. 
  -9   8   0    -67.53  180.04  0. 1.0000     0. 
  -9   8   1     64.01  136.01  0. 1.0000     0. 
  -9   8   1     89.18  226.47  0. 1.0000     0. 
  -9   8  -1      4.81  156.29  0. 1.0000     0. 
  -9   8  -1     99.46  121.60  0. 1.0000     0. 
  -9   8   2   2919.02  384.20  0. 1.0000     0. 
  -9   8  -2   2967.15  261.49  0. 1.0000     0. 
  -9   8  -2   3261.60  259.99  0. 1.0000     0. 
 -10   0   0   3185.16  308.32  0. 1.0000     0. 
 -10   0   1   2141.28  275.74  0. 1.0000     0. 
 -10   0   1   1745.19  537.66  0. 1.0000     0. 
 -10   0  -1   1505.94  417.33  0. 1.0000     0. 
 -10   0  -1   2507.93  257.50  0. 1.0000     0. 
 -10   0   2  31880.00 1878.54  0. 1.0000     0. 
 -10   0   2  28624.00 1968.57  0. 1.0000     0. 
 -10   0  -2  32503.00 1973.67  0. 1.0000     0. 
 -10   0  -2  32503.00 1836.92  0. 1.0000     0. 
 -10   0   3  47395.00 2718.85  0. 1.0000     0. 
 -10   0  -3  49858.00 2902.04  0. 1.0000     0. 
 -10   0  -3  53596.00 3003.96  0. 1.0000     0. 
 -10   0   4  29020.00 2210.93  0. 1.0000     0. 
 -10   0   4  30323.00 1802.66  0. 1.0000     0. 
 -10   0  -4  33267.00 1867.21  0. 1.0000     0. 
 -10   0  -4  36523.00 2169.87  0. 1.0000     0. 
 -10   0   5  17593.00 1777.74  0. 1.0000     0. 
 -10   0  -5  21285.00 1207.25  0. 1.0000     0. 
 -10   0  -5  21710.00 1337.77  0. 1.0000     0. 
 -10   0  -6  19434.00 1089.75  0. 1.0000     0. 
 -10   0  -6  19369.00 1171.29  0. 1.0000     0. 
 -10  -1   0   6070.21  454.98  0. 1.0000     0. 
 -10  -1   0   6305.20  581.82  0. 1.0000     0. 
 -10   1   0   7788.78  748.02  0. 1.0000     0. 
 -10   1   1  12993.00  819.93  0. 1.0000     0. 
 -10  -1  -1  13372.00  907.70  0. 1.0000     0. 
 -10  -1   1  13695.00  881.94  0. 1.0000     0. 
 -10  -1   1  12443.00  939.69  0. 1.0000     0. 
 -10   1  -1  13567.00  828.71  0. 1.0000     0. 
 -10   1   2  34881.00 2301.53  0. 1.0000     0. 
 -10   1   2  33352.00 1931.20  0. 1.0000     0. 
 -10  -1  -2  30408.00 1809.17  0. 1.0000     0. 
 -10  -1  -2  35844.00 2064.83  0. 1.0000     0. 
 -10  -1   2  30691.00 1931.20  0. 1.0000     0. 
 -10  -1   2  31285.00 1840.03  0. 1.0000     0. 
 -10   1  -2  32248.00 1810.59  0. 1.0000     0. 
 -10   1  -2  37004.00 2190.54  0. 1.0000     0. 
 -10   1   3  23151.00 1709.79  0. 1.0000     0. 
 -10   1   3  21387.00 1351.92  0. 1.0000     0. 
 -10  -1  -3  19168.00 1116.08  0. 1.0000     0. 
 -10  -1  -3  17180.00 1066.82  0. 1.0000     0. 
 -10  -1   3  18409.00 1167.04  0. 1.0000     0. 
 -10  -1   3  15076.00 1174.12  0. 1.0000     0. 
 -10   1  -3  19023.00 1156.57  0. 1.0000     0. 
 -10   1  -3  19561.00 1118.06  0. 1.0000     0. 
 -10   1   4   5223.66  461.21  0. 1.0000     0. 
 -10   1   4   4971.68  842.02  0. 1.0000     0. 
 -10  -1  -4   5968.28  411.38  0. 1.0000     0. 
 -10  -1  -4   4399.77  414.78  0. 1.0000     0. 
 -10  -1   4   3156.85  862.68  0. 1.0000     0. 
 -10  -1   4   4886.74  484.43  0. 1.0000     0. 
 -10   1   5   8270.09 1050.11  0. 1.0000     0. 
 -10  -1  -5   8012.45  579.84  0. 1.0000     0. 
 -10  -1  -5  10382.00  630.80  0. 1.0000     0. 
 -10   1  -5  10170.00  597.96  0. 1.0000     0. 
 -10   1  -5   9549.82  614.66  0. 1.0000     0. 
 -10   1  -6  17942.00 1001.98  0. 1.0000     0. 
 -10   1  -6  15255.00  905.43  0. 1.0000     0. 
 -10  -1  -7   9252.54  537.94  0. 1.0000     0. 
 -10  -2   0  32135.00 1855.60  0. 1.0000     0. 
 -10   2   0  31568.00 1805.49  0. 1.0000     0. 
 -10   2   0  34739.00 2128.54  0. 1.0000     0. 
 -10   2   1  41082.00 2363.81  0. 1.0000     0. 
  10   2  -1  38901.00 2208.66  0. 1.0000     0. 
  10   2   1  40374.00 2283.97  0. 1.0000     0. 
 -10  -2   1  39524.00 2258.21  0. 1.0000     0. 
 -10   2  -1  40006.00 2264.44  0. 1.0000     0. 
 -10   2  -1  45328.00 2642.69  0. 1.0000     0. 
 -10   2   2  34570.00 2227.06  0. 1.0000     0. 
 -10   2   2  29105.00 1702.15  0. 1.0000     0. 
  10   2  -2  29445.00 1726.78  0. 1.0000     0. 
 -10  -2  -2  30549.00 1759.34  0. 1.0000     0. 
  10   2   2  28369.00 1621.74  0. 1.0000     0. 
 -10  -2   2  27911.00 1649.21  0. 1.0000     0. 
 -10   2  -2  28539.00 1616.93  0. 1.0000     0. 
 -10   2  -2  33296.00 1937.14  0. 1.0000     0. 
 -10   2   3   4748.01  452.43  0. 1.0000     0. 
 -10   2   3   4821.63  738.11  0. 1.0000     0. 
 -10  -2  -3   4943.37  401.76  0. 1.0000     0. 
  10   2   3   3992.07  297.85  0. 1.0000     0. 
 -10  -2   3   4682.89  458.66  0. 1.0000     0. 
 -10   2  -3   4481.88  307.47  0. 1.0000     0. 
 -10   2  -3   4968.85  412.80  0. 1.0000     0. 
 -10   2   4    612.40  235.05  0. 1.0000     0. 
 -10   2   4    577.01  617.21  0. 1.0000     0. 
 -10  -2  -4    759.91  184.99  0. 1.0000     0. 
 -10  -2   4    107.81  565.68  0. 1.0000     0. 
 -10   2  -4    381.65  177.89  0. 1.0000     0. 
 -10   2  -4    710.93  138.82  0. 1.0000     0. 
 -10   2   5    436.86  790.77  0. 1.0000     0. 
  10   2   5    296.43   82.93  0. 1.0000     0. 
 -10   2  -5    445.07  104.56  0. 1.0000     0. 
 -10   2  -5    306.91   98.10  0. 1.0000     0. 
 -10  -2  -6  17341.00  997.45  0. 1.0000     0. 
  10   2   6  14343.00  832.11  0. 1.0000     0. 
 -10  -2  -7  24326.00 1365.23  0. 1.0000     0. 
  10   3   0  10903.00  686.01  0. 1.0000     0. 
 -10  -3   0  11795.00  847.11  0. 1.0000     0. 
 -10   3   0  11198.00  709.79  0. 1.0000     0. 
 -10   3   0  12053.00  849.09  0. 1.0000     0. 
 -10   3   1  18123.00 1211.49  0. 1.0000     0. 
 -10   3   1  18768.00 1154.87  0. 1.0000     0. 
  10   3  -1  16931.00 1049.55  0. 1.0000     0. 
 -10  -3  -1  17273.00 1067.67  0. 1.0000     0. 
  10   3   1  16772.00 1006.79  0. 1.0000     0. 
 -10  -3   1  16540.00 1035.39  0. 1.0000     0. 
 -10   3  -1  16993.00  998.30  0. 1.0000     0. 
 -10   3  -1  17894.00 1118.91  0. 1.0000     0. 
 -10   3   2  26082.00 1535.11  0. 1.0000     0. 
  10   3  -2  26973.00 1612.40  0. 1.0000     0. 
 -10  -3  -2  24295.00 1447.34  0. 1.0000     0. 
  10   3   2  26628.00 1545.30  0. 1.0000     0. 
 -10  -3   2  26552.00 1594.00  0. 1.0000     0. 
 -10   3  -2  25045.00 1433.18  0. 1.0000     0. 
 -10   3  -2  27177.00 1635.33  0. 1.0000     0. 
 -10   3   3  11195.00  932.05  0. 1.0000     0. 
 -10   3   3  11280.00  763.59  0. 1.0000     0. 
  10   3  -3  10971.00  766.42  0. 1.0000     0. 
 -10  -3  -3  10869.00  710.93  0. 1.0000     0. 
  10   3   3   9997.16  633.07  0. 1.0000     0. 
 -10  -3   3  10773.00  787.66  0. 1.0000     0. 
 -10   3  -3   9122.30  549.55  0. 1.0000     0. 
 -10   3   4   1697.05  584.37  0. 1.0000     0. 
 -10   3   4   1952.15  309.46  0. 1.0000     0. 
 -10  -3  -4   2195.35  263.28  0. 1.0000     0. 
  10   3   4   1407.98  165.88  0. 1.0000     0. 
 -10   3  -4   1828.99  156.46  0. 1.0000     0. 
 -10   3  -4   1657.13  150.40  0. 1.0000     0. 
  10   3   5   6526.04  420.44  0. 1.0000     0. 
 -10   3  -5   5815.40  353.34  0. 1.0000     0. 
 -10  -3  -6  18967.00 1094.00  0. 1.0000     0. 
  10   3   6  17794.00 1014.72  0. 1.0000     0. 
 -10  -3  -7  13834.00  815.12  0. 1.0000     0. 
  10   4   0   1711.49  245.24  0. 1.0000     0. 
 -10  -4   0   1301.81  288.79  0. 1.0000     0. 
 -10   4   0    952.72  241.20  0. 1.0000     0. 
 -10   4   0   1784.82  223.07  0. 1.0000     0. 
 -10   4   1   2244.90  265.43  0. 1.0000     0. 
 -10   4   1   1531.43  393.26  0. 1.0000     0. 
  10   4  -1   2274.35  293.04  0. 1.0000     0. 
 -10  -4  -1   1896.94  312.29  0. 1.0000     0. 
  10   4   1   2212.06  271.63  0. 1.0000     0. 
 -10  -4   1   2039.92  383.92  0. 1.0000     0. 
 -10   4  -1   2134.48  224.24  0. 1.0000     0. 
 -10   4  -1   1612.40  190.03  0. 1.0000     0. 
 -10   4   2  22138.00 1323.89  0. 1.0000     0. 
 -10   4   2  24091.00 1664.78  0. 1.0000     0. 
  10   4  -2  22939.00 1406.00  0. 1.0000     0. 
 -10  -4  -2  22438.00 1357.87  0. 1.0000     0. 
  10   4   2  24136.00 1425.54  0. 1.0000     0. 
 -10   4   3  29275.00 1700.17  0. 1.0000     0. 
 -10  -4  -3  32758.00 1894.68  0. 1.0000     0. 
  10   4   3  32361.00 1855.89  0. 1.0000     0. 
 -10   4  -3  31087.00 1737.82  0. 1.0000     0. 
 -10   4  -3  29643.00 1652.89  0. 1.0000     0. 
 -10   4   4  24459.00 1835.50  0. 1.0000     0. 
 -10  -4  -4  21670.00 1284.26  0. 1.0000     0. 
  10   4   4  22231.00 1302.38  0. 1.0000     0. 
 -10   4  -4  26755.00 1489.24  0. 1.0000     0. 
 -10   4  -4  21203.00 1181.77  0. 1.0000     0. 
  10   4   5  16002.00  958.10  0. 1.0000     0. 
 -10  -4  -6  14335.00  866.65  0. 1.0000     0. 
 -10   5   0   1693.09  215.35  0. 1.0000     0. 
 -10   5   0   1768.40  230.75  0. 1.0000     0. 
 -10   5   1   5141.56  404.02  0. 1.0000     0. 
 -10   5   1   5096.26  368.06  0. 1.0000     0. 
 -10  -5  -1   5419.02  520.39  0. 1.0000     0. 
  10   5   1   5580.40  461.21  0. 1.0000     0. 
 -10   5   2  18624.00 1124.01  0. 1.0000     0. 
 -10   5   2  19490.00 1167.61  0. 1.0000     0. 
 -10  -5  -2  18692.00 1182.33  0. 1.0000     0. 
  10   5   2  20883.00 1261.61  0. 1.0000     0. 
 -10   5  -2  19360.00 1109.85  0. 1.0000     0. 
 -10   5  -2  21107.00 1206.11  0. 1.0000     0. 
 -10   5   3  17005.00 1075.88  0. 1.0000     0. 
 -10  -5  -3  16645.00 1052.94  0. 1.0000     0. 
  10   5   3  17542.00 1069.36  0. 1.0000     0. 
 -10   5  -3  18245.00 1039.35  0. 1.0000     0. 
 -10   5  -3  15402.00  875.71  0. 1.0000     0. 
 -10  -5  -4   6494.90  517.55  0. 1.0000     0. 
 -10   5  -4   5829.55  354.47  0. 1.0000     0. 
 -10   6   0  18703.00 1113.82  0. 1.0000     0. 
 -10   6   1  21775.00 1298.41  0. 1.0000     0. 
 -10   6   1  19088.00 1127.97  0. 1.0000     0. 
 -10   6  -1  23154.00 1330.69  0. 1.0000     0. 
 -10   6  -1  20164.00 1177.80  0. 1.0000     0. 
 -10   6   2  15733.00  986.97  0. 1.0000     0. 
 -10   6  -2  16631.00  960.93  0. 1.0000     0. 
 -10   6  -2  16922.00  985.56  0. 1.0000     0. 
 -10   6  -3   2839.75  225.51  0. 1.0000     0. 
 -11   0   0    131.60  155.58  0. 1.0000     0. 
 -11   0   0    150.93  586.92  0. 1.0000     0. 
 -11   0   1     92.07  195.92  0. 1.0000     0. 
 -11   0   1   -137.00  695.92  0. 1.0000     0. 
 -11   0  -1    216.70  591.45  0. 1.0000     0. 
 -11   0  -1    211.81  161.04  0. 1.0000     0. 
 -11   0   2   4011.89 1121.46  0. 1.0000     0. 
 -11   0  -3   8445.63  538.22  0. 1.0000     0. 
 -11   0  -3   7205.54  820.21  0. 1.0000     0. 
 -11   0  -4    194.42  133.01  0. 1.0000     0. 
 -11   0  -4    332.67  268.32  0. 1.0000     0. 
 -11  -1   0    226.98  603.62  0. 1.0000     0. 
 -11  -1   0     46.38  192.27  0. 1.0000     0. 
 -11   1   0     -4.60  153.37  0. 1.0000     0. 
 -11   1   0     74.72  464.61  0. 1.0000     0. 
 -11   1   1    799.26  213.53  0. 1.0000     0. 
 -11   1   1    542.47  539.64  0. 1.0000     0. 
 -11  -1  -1    441.96  490.09  0. 1.0000     0. 
 -11  -1  -1    703.57  207.76  0. 1.0000     0. 
 -11  -1   1    632.22  229.05  0. 1.0000     0. 
 -11  -1   1    331.54  746.04  0. 1.0000     0. 
 -11   1  -1    848.53  175.79  0. 1.0000     0. 
 -11   1  -1    847.96  442.52  0. 1.0000     0. 
 -11   1   2    -46.55  616.93  0. 1.0000     0. 
 -11  -1  -2     63.53  166.08  0. 1.0000     0. 
 -11   1  -2     13.21  133.66  0. 1.0000     0. 
 -11   1  -2    182.93  416.48  0. 1.0000     0. 
 -11  -1  -3    367.50  463.48  0. 1.0000     0. 
 -11  -1  -3   1468.85  204.16  0. 1.0000     0. 
 -11   1  -3    499.43  373.73  0. 1.0000     0. 
 -11   1  -3   1566.53  200.76  0. 1.0000     0. 
 -11  -1  -4     14.63  271.18  0. 1.0000     0. 
 -11  -1  -4     -4.22  135.45  0. 1.0000     0. 
 -11   1  -4    -16.46  173.84  0. 1.0000     0. 
 -11   1  -4     23.84  104.67  0. 1.0000     0. 
 -11  -1  -5   1664.49  196.04  0. 1.0000     0. 
 -11  -2   0    -30.04  224.80  0. 1.0000     0. 
 -11   2   0     73.67  154.47  0. 1.0000     0. 
 -11   2   0    180.01  455.55  0. 1.0000     0. 
 -11   2   1  10694.00  684.31  0. 1.0000     0. 
 -11   2   1   9872.58  990.94  0. 1.0000     0. 
 -11  -2  -1  11198.00  763.31  0. 1.0000     0. 
 -11  -2   1   7477.34  932.33  0. 1.0000     0. 
 -11   2  -1   8088.89  716.59  0. 1.0000     0. 
 -11   2   2   7751.97  948.75  0. 1.0000     0. 
 -11  -2  -2   7440.54  507.36  0. 1.0000     0. 
 -11   2  -2   7887.87  492.35  0. 1.0000     0. 
 -11   2  -2   7675.53  661.38  0. 1.0000     0. 
 -11  -2  -3    258.92  185.70  0. 1.0000     0. 
 -11   2  -3    302.09  223.39  0. 1.0000     0. 
 -11   2  -3    477.35  115.40  0. 1.0000     0. 
 -11  -2  -4    -72.03  252.72  0. 1.0000     0. 
 -11  -2  -4    194.88  170.55  0. 1.0000     0. 
 -11   3   0    -14.91  133.44  0. 1.0000     0. 
 -11   3   1   1841.45  247.00  0. 1.0000     0. 
 -11   3   1   1206.11  433.18  0. 1.0000     0. 
 -11  -3  -1   1397.22  264.55  0. 1.0000     0. 
  11   3   1   2192.52  263.11  0. 1.0000     0. 
 -11   3  -1   1909.96  215.37  0. 1.0000     0. 
 -11   3  -1   1135.90  369.76  0. 1.0000     0. 
 -11   3   2    191.99  375.99  0. 1.0000     0. 
 -11  -3  -2    460.65  229.98  0. 1.0000     0. 
 -11   3  -2    104.33  216.82  0. 1.0000     0. 
 -11   3  -2    644.39  141.90  0. 1.0000     0. 
 -11   3  -3    213.36  117.47  0. 1.0000     0. 
 -11   3  -3    469.42  114.89  0. 1.0000     0. 
 -11   4   0     76.33  167.16  0. 1.0000     0. 
 -11   4  -1    122.62  129.10  0. 1.0000     0. 
 -11   4  -1     80.78  144.56  0. 1.0000     0. 
 -11   4  -2   2351.92  217.21  0. 1.0000     0. 
-512 
#   6702 reflections output 
;
_olex2_submission_special_instructions 'No special instructions were received'
_publcif_funding_html
;
;
loop_
_space_group_symop_operation_xyz
'x, y, z'
'-x+1/2, -y, z'
'x+1/2, -y, -z'
'-x, y, -z'
'-x, -y, -z'
'x-1/2, y, -z'
'-x-1/2, y, z'
'x, -y, z'
loop_
_atom_site_label
_atom_site_type_symbol
_atom_site_fract_x
_atom_site_fract_y
_atom_site_fract_z
_atom_site_U_iso_or_equiv
_atom_site_adp_type
_atom_site_occupancy
_atom_site_site_symmetry_order
_atom_site_calc_flag
_atom_site_refinement_flags_posn
_atom_site_refinement_flags_adp
_atom_site_refinement_flags_occupancy
_atom_site_disorder_assembly
_atom_site_disorder_group
Pb1 Pb 1.000000 -0.500000 0.000000 0.0325(2) Uani 1 4 d S T P . .
I2 I 0.750000 -0.500000 0.23412(8) 0.0418(3) Uani 1 4 d S T P . .
I3 I 0.750000 -0.26183(8) -0.12446(7) 0.0445(2) Uani 1 2 d S T P . .
S4 S 0.750000 0.000000 0.4032(5) 0.0692(13) Uani 1 4 d DS TU P . .
C1 C 0.8460(15) 0.000000 0.1734(14) 0.064(3) Uani 1 2 d DS TU P . .
H1BD H 0.887508 0.102986 0.165396 0.077 Uiso 0.5 1 calc R . . A -1
H1BC H 0.887507 -0.056907 0.100988 0.077 Uiso 0.5 1 calc R . . A -1
H1AB H 0.884254 0.078281 0.115501 0.077 Uiso 0.5 1 calc R . . B -2
H1AA H 0.884254 -0.095924 0.138878 0.077 Uiso 0.5 1 calc R . . B -2
O3 O 0.750000 0.114(3) 0.4810(19) 0.148(9) Uani 1 2 d S T P C .
C2AB C 0.916(3) -0.068(4) 0.2929(14) 0.089(6) Uani 0.5 1 d D U . C -1
H2AA H 1.029715 -0.029600 0.313669 0.107 Uiso 0.5 1 calc R . . C -1
H2AB H 0.919877 -0.177944 0.288842 0.107 Uiso 0.5 1 calc R . . C -1
C2AA C 0.937(2) 0.024(4) 0.2975(14) 0.090(6) Uani 0.5 1 d D U . C -2
H2AC H 0.987135 0.123857 0.303971 0.107 Uiso 0.5 1 calc R . . C -2
H2AD H 1.025056 -0.052100 0.312542 0.107 Uiso 0.5 1 calc R . . C -2
O2 O 0.478(3) 0.367(4) 0.467(3) 0.070 Uiso 0.25 1 d D . . D -1
H2 H 0.441901 0.453381 0.454100 0.105 Uiso 0.25 1 d R . . D -1
N3 N 0.609(3) 0.379(4) 0.556(3) 0.070 Uiso 0.25 1 d D . . D -1
H3A H 0.681589 0.303836 0.537710 0.084 Uiso 0.25 1 d R . . D -1
H3B H 0.658459 0.467136 0.536489 0.084 Uiso 0.25 1 d R . . D -1
H3C H 0.585229 0.377356 0.638800 0.084 Uiso 0.25 1 d R . . D -1
loop_
_atom_site_aniso_label
_atom_site_aniso_U_11
_atom_site_aniso_U_22
_atom_site_aniso_U_33
_atom_site_aniso_U_23
_atom_site_aniso_U_13
_atom_site_aniso_U_12
Pb1 0.0222(2) 0.0422(3) 0.0332(3) 0.000 0.00146(13) 0.000
I2 0.0329(4) 0.0619(6) 0.0307(4) 0.000 0.000 0.000
I3 0.0307(3) 0.0465(4) 0.0564(4) 0.0141(3) 0.000 0.000
S4 0.065(3) 0.099(4) 0.044(2) 0.000 0.000 0.000
C1 0.038(5) 0.089(9) 0.066(6) 0.000 0.006(5) 0.000
O3 0.141(19) 0.19(2) 0.114(12) -0.082(13) 0.000 0.000
C2AB 0.092(8) 0.092(12) 0.084(7) 0.000(7) 0.001(6) 0.002(8)
C2AA 0.101(9) 0.089(15) 0.079(8) 0.000(10) 0.005(6) 0.003(11)
loop_
_atom_type_symbol
_atom_type_description
_atom_type_scat_dispersion_real
_atom_type_scat_dispersion_imag
_atom_type_scat_source
C C 0.0030 0.0016 'International Tables Vol C Tables 4.2.6.8 and 6.1.1.4'
H H 0.0000 0.0000 'International Tables Vol C Tables 4.2.6.8 and 6.1.1.4'
I I -0.4630 1.7726 'International Tables Vol C Tables 4.2.6.8 and 6.1.1.4'
N N 0.0061 0.0033 'International Tables Vol C Tables 4.2.6.8 and 6.1.1.4'
O O 0.0105 0.0059 'International Tables Vol C Tables 4.2.6.8 and 6.1.1.4'
Pb Pb -3.0345 9.9071 'International Tables Vol C Tables 4.2.6.8 and 6.1.1.4'
S S 0.1218 0.1207 'International Tables Vol C Tables 4.2.6.8 and 6.1.1.4'
loop_
_geom_angle_atom_site_label_1
_geom_angle_atom_site_label_2
_geom_angle_atom_site_label_3
_geom_angle
_geom_angle_site_symmetry_1
_geom_angle_site_symmetry_3
I2 Pb1 I2 180.0 . 5_745
I2 Pb1 I3 93.005(13) 5_745 2_645
I2 Pb1 I3 86.995(13) 5_745 5_745
I2 Pb1 I3 93.005(13) . 6_655
I2 Pb1 I3 93.005(13) . 5_745
I2 Pb1 I3 86.995(13) 5_745 6_655
I2 Pb1 I3 86.995(13) . .
I2 Pb1 I3 86.995(13) . 2_645
I2 Pb1 I3 93.005(13) 5_745 .
I3 Pb1 I3 96.06(2) 2_645 5_745
I3 Pb1 I3 180.0 5_745 .
I3 Pb1 I3 83.94(2) 2_645 .
I3 Pb1 I3 180.00(2) 6_655 2_645
I3 Pb1 I3 83.94(2) 6_655 5_745
I3 Pb1 I3 96.06(2) 6_655 .
Pb1 I2 Pb1 76.281(19) 2_645 .
Pb1 I3 Pb1 76.003(14) 2_645 .
O3 S4 O3 102(3) . 2_655
O3 S4 C2AB 130.9(12) . .
O3 S4 C2AB 98.3(12) 2_655 .
O3 S4 C2AA 107.1(12) . .
O3 S4 C2AA 118.1(12) 2_655 .
C1 C1 H1BD 109.4 2_655 .
C1 C1 H1BC 109.4 2_655 .
C1 C1 H1AB 107.8 2_655 .
C1 C1 H1AA 107.8 2_655 .
C1 C1 C2AB 111.3(10) 2_655 .
C1 C1 C2AA 118.0(8) 2_655 .
H1BD C1 H1BC 108.0 . .
H1AB C1 H1AA 107.1 . .
C2AB C1 H1BD 109.4 . .
C2AB C1 H1BC 109.4 . .
C2AA C1 H1AB 107.8 . .
C2AA C1 H1AA 107.8 . .
S4 C2AB H2AA 112.1 . .
S4 C2AB H2AB 112.1 . .
C1 C2AB S4 98.3(10) . .
C1 C2AB H2AA 112.1 . .
C1 C2AB H2AB 112.1 . .
H2AA C2AB H2AB 109.8 . .
S4 C2AA H2AC 112.1 . .
S4 C2AA H2AD 112.1 . .
C1 C2AA S4 98.1(10) . .
C1 C2AA H2AC 112.1 . .
C1 C2AA H2AD 112.1 . .
H2AC C2AA H2AD 109.8 . .
N3 O2 H2 107.4 . .
O2 N3 H3A 104.9 . .
O2 N3 H3B 102.7 . .
O2 N3 H3C 120.3 . .
H3A N3 H3B 109.5 . .
H3A N3 H3C 109.5 . .
H3B N3 H3C 109.4 . .
loop_
_geom_bond_atom_site_label_1
_geom_bond_atom_site_label_2
_geom_bond_distance
_geom_bond_site_symmetry_2
Pb1 I2 3.2060(7) .
Pb1 I2 3.2060(7) 5_745
Pb1 I3 3.2160(5) .
Pb1 I3 3.2159(5) 5_745
Pb1 I3 3.2159(5) 6_655
Pb1 I3 3.2159(5) 2_645
S4 O3 1.33(2) .
S4 O3 1.33(2) 2_655
S4 C2AB 1.878(15) .
S4 C2AA 1.881(15) .
C1 C1 1.52(2) 2_655
C1 H1BD 0.9900 .
C1 H1BC 0.9900 .
C1 H1AB 0.9900 .
C1 H1AA 0.9900 .
C1 C2AB 1.53(2) .
C1 C2AA 1.53(2) .
C2AB H2AA 0.9900 .
C2AB H2AB 0.9900 .
C2AA H2AC 0.9900 .
C2AA H2AD 0.9900 .
O2 H2 0.8401 .
O2 N3 1.4151(10) .
N3 H3A 0.9099 .
N3 H3B 0.9100 .
N3 H3C 0.9101 .
loop_
_geom_torsion_atom_site_label_1
_geom_torsion_atom_site_label_2
_geom_torsion_atom_site_label_3
_geom_torsion_atom_site_label_4
_geom_torsion
_geom_torsion_site_symmetry_1
C1 C1 C2AB S4 -35.2(18) 2_655
C1 C1 C2AA S4 12(2) 2_655
O3 S4 C2AB C1 -100(2) .
O3 S4 C2AB C1 147.1(17) 2_655
O3 S4 C2AA C1 -130.7(18) .
O3 S4 C2AA C1 115.5(18) 2_655
