#------------------------------------------------------------------------------
#$Date: 2015-12-04 03:39:04 +0200 (Fri, 04 Dec 2015) $
#$Revision: 170697 $
#$URL: svn://www.crystallography.net/cod/cif/2/10/72/2107271.cif $
#------------------------------------------------------------------------------
#
# This file is available in the Crystallography Open Database (COD),
# http://www.crystallography.net/. The original data for this entry
# were provided by IUCr Journals, http://journals.iucr.org/.
#
# The file may be used within the scientific community so long as
# proper attribution is given to the journal article from which the
# data were obtained.
#
data_2107271
loop_
_publ_author_name
'Weber, Oliver J.'
'Marshall, Kayleigh L.'
'Dyson, Lewis M.'
'Weller, Mark T.'
_publ_section_title
;
 Structural diversity in hybrid organic--inorganic lead iodide materials
;
_journal_issue                   6
_journal_name_full               'Acta Crystallographica Section B'
_journal_page_first              668
_journal_page_last               678
_journal_paper_doi               10.1107/S2052520615019885
_journal_volume                  71
_journal_year                    2015
_chemical_formula_sum            'C10 H18 I3 N O2 Pb S2'
_chemical_formula_weight         836.26
_chemical_name_common            '1,2-di(4-pyridyl)ethylene lead iodide'
_chemical_name_systematic
;
 ?
;
_space_group_crystal_system      monoclinic
_space_group_IT_number           14
_space_group_name_Hall           '-P 2ybc'
_space_group_name_H-M_alt        'P 1 21/c 1'
_symmetry_space_group_name_Hall  '-P 2ybc'
_symmetry_space_group_name_H-M   'P 1 21/c 1'
_atom_sites_solution_hydrogens   geom
_audit_creation_method           SHELXL-2014
_cell_angle_alpha                90
_cell_angle_beta                 95.491(9)
_cell_angle_gamma                90
_cell_formula_units_Z            4
_cell_length_a                   15.0068(15)
_cell_length_b                   16.9568(15)
_cell_length_c                   8.1667(5)
_cell_measurement_temperature    150(2)
_cell_volume                     2068.6(3)
_computing_structure_refinement  'SHELXL-2014 (Sheldrick, 2014)'
_diffrn_ambient_temperature      150(2)
_diffrn_measured_fraction_theta_full 0.994
_diffrn_measured_fraction_theta_max 0.825
_diffrn_measurement_device_type  'SuperNova, Dual, Cu at zero, EosS2'
_diffrn_radiation_type           MoK\a
_diffrn_radiation_wavelength     0.71073
_diffrn_reflns_av_R_equivalents  0.0817
_diffrn_reflns_limit_h_max       10
_diffrn_reflns_limit_h_min       -20
_diffrn_reflns_limit_k_max       22
_diffrn_reflns_limit_k_min       -22
_diffrn_reflns_limit_l_max       10
_diffrn_reflns_limit_l_min       -10
_diffrn_reflns_number            7724
_diffrn_reflns_theta_full        25.242
_diffrn_reflns_theta_max         29.213
_diffrn_reflns_theta_min         3.635
_exptl_absorpt_coefficient_mu    12.833
_exptl_absorpt_correction_T_max  1.00000
_exptl_absorpt_correction_T_min  0.62248
_exptl_absorpt_correction_type   multi-scan
_exptl_crystal_colour            yellow
_exptl_crystal_density_diffrn    2.685
_exptl_crystal_description       needle
_exptl_crystal_F_000             1496
_exptl_crystal_size_max          0.4
_exptl_crystal_size_mid          0.1
_exptl_crystal_size_min          0.05
_refine_diff_density_max         2.871
_refine_diff_density_min         -2.287
_refine_ls_extinction_method     none
_refine_ls_goodness_of_fit_ref   1.073
_refine_ls_hydrogen_treatment    constr
_refine_ls_matrix_type           full
_refine_ls_number_parameters     97
_refine_ls_number_reflns         4632
_refine_ls_number_restraints     15
_refine_ls_restrained_S_all      1.072
_refine_ls_R_factor_all          0.1531
_refine_ls_R_factor_gt           0.0891
_refine_ls_shift/su_max          0.001
_refine_ls_shift/su_mean         0.000
_refine_ls_structure_factor_coef Fsqd
_refine_ls_weighting_details
'w=1/[\s^2^(Fo^2^)+(0.0447P)^2^+4.4610P] where P=(Fo^2^+2Fc^2^)/3'
_refine_ls_weighting_scheme      calc
_refine_ls_wR_factor_gt          0.1630
_refine_ls_wR_factor_ref         0.1973
_reflns_number_gt                2814
_reflns_number_total             4632
_reflns_threshold_expression     'I > 2\s(I)'
_cod_data_source_file            ps5046sup1.cif
_cod_data_source_block           shelx5
_cod_database_code               2107271
_shelx_space_group_comment
;
The symmetry employed for this shelxl refinement is uniquely defined
by the following loop, which should always be used as a source of
symmetry information in preference to the above space-group names.
They are only intended as comments.
;
_shelx_hkl_file
;
  -3   0   0   10.91    3.64
  -4   0   0  327.01   19.57
  -5   0   0  303.70   20.76
  -6   0   0  628.15   32.65
  -7   0   0 1863.47   58.96
  -8   0   0  157.79   18.96
  -9   0   0  140.82   18.37
 -10   0   0  265.62   21.94
 -10   0   0  377.14   31.37
 -11   0   0  122.40   19.06
 -11   0   0  102.13   14.51
 -12   0   0   21.36    6.64
 -13   0   0  154.39   18.94
 -14   0   0   81.25   14.26
 -15   0   0   25.13    7.85
 -16   0   0    6.23    5.65
 -17   0   0   90.13   16.54
  -3   1   0   93.48    6.03
  -3   1   0  122.62   10.10
  -4   1   0   73.06    9.30
  -4  -1   0   83.20    9.41
  -5   1   0  317.57   21.90
  -5  -1   0  313.17   20.41
  -6   1   0  509.97   30.19
  -6  -1   0  480.26   27.31
  -7   1   0  147.20   12.87
  -7  -1   0  186.84   18.91
  -7   1   0  185.48   19.74
  -8   1   0  342.56   20.91
  -8   1   0  479.06   33.18
  -9   1   0   99.50   15.82
  -9   1   0   81.00   10.98
 -10   1   0   11.21    7.04
 -10   1   0   10.11    4.78
 -11   1   0  131.13   15.33
 -11   1   0  196.05   24.09
 -12  -1   0   81.52   13.76
 -12   1   0  108.05   18.70
 -12   1   0   79.59   12.68
 -13   1   0   59.62   15.72
 -13  -1   0   50.71   11.52
 -13   1   0   47.02   10.00
 -14  -1   0   57.14   12.52
 -14   1   0   54.46   11.22
 -15   1   0   27.03    8.51
 -15  -1   0   23.99    8.63
 -16   1   0   47.59   10.97
 -16  -1   0   56.87   13.73
 -17  -1   0   21.76    9.01
  -2   2   0  166.91   10.06
  -3   2   0    0.73    1.06
  -3   2   0    2.48    1.23
  -4   2   0   54.80    4.79
  -4   2   0   58.07    8.28
  -5   2   0   42.47    5.07
  -5   2   0   42.64    7.95
  -6   2   0  167.70   11.52
  -6   2   0  246.13   21.00
  -7   2   0  404.62   19.78
  -7   2   0  561.04   33.81
  -8   2   0    2.61    1.89
  -8   2   0    6.16    2.74
  -9   2   0   96.81   15.86
  -9   2   0   79.92   10.31
 -10   2   0   25.87    9.33
 -10   2   0   24.72    6.34
 -11   2   0   54.54   13.64
 -11   2   0   50.58    9.13
 -12   2   0    5.19    5.08
 -12   2   0    9.87    4.17
 -13  -2   0   85.05   14.66
 -13   2   0   89.75   12.86
 -14  -2   0   77.76   15.06
 -14   2   0   79.17   13.21
 -15   2   0    5.98    3.99
 -15  -2   0    7.24    5.78
 -16  -2   0   19.02    8.82
 -17  -2   0   36.44   11.62
 -18  -2   0   13.37    7.70
  -1   3   0  385.43   15.38
  -2   3   0  215.85   12.60
  -3   3   0   14.00    3.66
  -4   3   0   10.66    3.50
  -4   3   0    8.27    1.77
  -5   3   0  144.39    8.46
  -5   3   0  150.80   14.76
  -6   3   0  304.33   23.11
  -6   3   0  270.25   13.30
   6   3   0  316.18   24.56
   7   3   0    1.02    2.57
  -7   3   0    6.91    3.08
  -7   3   0    3.62    3.38
  -8   3   0   97.41   15.37
  -8   3   0   94.22    9.64
  -9   3   0   40.49    6.64
  -9   3   0   64.71   13.86
 -10   3   0   36.37    6.83
 -10   3   0   76.87   15.19
 -11   3   0   16.86    7.43
 -11   3   0    4.67    2.56
 -12   3   0  200.12   18.16
 -12   3   0  276.52   30.89
 -13   3   0   66.78   15.53
 -13   3   0   48.84    9.62
 -14   3   0   34.65   13.15
 -14   3   0   19.44    7.07
 -14  -3   0   23.94    9.55
 -15   3   0   74.31   17.29
 -15  -3   0   49.98   13.59
 -15   3   0   58.85   11.72
 -16  -3   0   18.59    9.30
 -17  -3   0   35.45   12.34
 -18  -3   0   15.63    9.70
  -1   4   0  360.70   16.88
  -2   4   0    6.56    2.38
  -3   4   0  265.92   16.65
   3  -4   0  214.05    8.73
  -4   4   0  167.92   14.31
   4  -4   0  120.73    6.27
  -4   4   0  130.82    6.81
  -5   4   0   10.36    5.38
  -5   4   0    6.71    1.85
   6   4   0   69.40   11.75
  -6   4   0   65.79   10.91
  -6   4   0   49.44    5.20
  -7   4   0   24.51    7.88
  -7   4   0   19.73    3.97
   7   4   0   37.86    9.84
  -8   4   0   80.09    8.21
  -8   4   0   94.42   15.53
  -9   4   0   26.09    5.13
  -9   4   0   26.80    8.41
 -10   4   0   52.18   13.12
 -10   4   0   31.46    6.23
 -11   4   0  123.58   20.32
 -11   4   0   76.62    9.88
 -12   4   0   23.50   11.28
 -12   4   0   25.08    6.52
 -13   4   0   81.94   11.64
 -13   4   0  119.27   21.47
 -14   4   0   20.51    9.63
 -14   4   0   26.50    7.30
 -15  -4   0   10.68    6.05
 -15   4   0   20.38   10.45
 -16  -4   0   17.27    8.15
 -16   4   0   30.46   13.35
 -17  -4   0   13.61    9.09
 -18  -4   0   48.58   15.38
 -19  -4   0   11.63    7.77
  -1   5   0  164.71   12.69
  -2   5   0  213.20   14.77
  -3   5   0  482.48   23.52
   3  -5   0  447.42   14.40
  -4   5   0  173.88   15.23
   4  -5   0  115.73    6.61
   5  -5   0  376.18   12.10
  -5   5   0  425.82   13.04
  -6   5   0   30.88    3.87
  -6   5   0   50.69   10.11
  -7   5   0   63.12   11.59
  -7   5   0   58.67    6.29
  -8   5   0   79.90   14.21
  -8   5   0   53.97    6.38
  -9   5   0   18.11    4.06
  -9   5   0   32.43    9.52
 -10   5   0  237.98   26.63
 -10   5   0  184.67   13.81
 -11   5   0    1.57    2.40
 -11   5   0   -4.27    2.61
 -12   5   0  147.92   13.75
 -12   5   0  321.64   34.17
 -13   5   0    2.16    3.01
 -13   5   0    5.03    4.56
 -14   5   0   86.46   19.53
 -15   5   0    0.85    5.57
 -15  -5   0    0.40    1.34
 -16  -5   0    8.87    7.54
 -16   5   0    4.60    6.39
 -17   5   0   58.09   16.76
 -17  -5   0   30.06   11.41
 -18  -5   0   25.45   11.62
 -19  -5   0   46.02   14.94
  -1   6   0   51.51    7.44
  -2   6   0  622.13   27.15
   2  -6   0  634.26   30.36
  -3   6   0  275.18   18.93
   3  -6   0  287.62   13.20
   3  -6   0  321.66   23.14
   4  -6   0  782.27   20.15
  -4   6   0  924.81   36.23
  -5   6   0  122.75   14.40
   5  -6   0   77.76    5.66
  -6   6   0  418.86   27.39
  -7   6   0   15.22    5.79
  -7   6   0   10.49    2.40
  -8   6   0   53.14    5.66
  -8   6   0   82.17   14.76
  -9   6   0  147.25   20.21
  -9   6   0   90.00    8.41
 -10   6   0    3.95    2.54
 -10   6   0    2.77    5.53
 -11   6   0  324.24   32.85
 -11   6   0  240.36   15.86
 -12   6   0   15.55    7.87
 -12   6   0   17.84    5.25
 -13   6   0  170.76   25.59
 -14   6   0   36.45   13.06
 -15   6   0   35.64   14.05
 -16  -6   0   20.23    8.94
 -16   6   0    8.66    6.37
 -17  -6   0   22.66   12.08
 -17   6   0   25.18   12.02
 -18  -6   0   22.17   10.34
 -19  -6   0   28.18   12.09
   0   7   0    7.39    4.59
  -1   7   0  378.41   21.93
  -2   7   0   67.67    9.84
   3  -7   0 1109.31   29.03
  -3   7   0 1085.66   39.73
   3  -7   0 1160.31   46.73
   4  -7   0  273.19   24.25
   4  -7   0  217.62   11.91
  -4   7   0  255.19   20.07
  -5   7   0  408.81   26.54
   5  -7   0  248.26   11.04
  -6   7   0   16.85    7.03
   6  -7   0   10.89    2.04
  -7   7   0  157.92   18.30
  -8   7   0   94.18   15.40
  -9   7   0   47.37    5.01
  -9   7   0   82.92   15.77
 -10   7   0  136.35    9.45
 -10   7   0  223.28   26.25
 -11   7   0    5.78    5.65
 -11   7   0    3.98    2.07
 -12   7   0   72.76   18.24
 -13   7   0   12.81    8.72
 -14   7   0   65.61   16.20
 -15   7   0   13.87   10.78
 -16   7   0   14.17    7.76
 -16  -7   0   37.83   16.37
 -17  -7   0   15.02    8.40
 -17   7   0   30.45   12.85
 -18  -7   0    3.22    6.20
 -19  -7   0    2.56    2.78
   0   8   0  418.58   24.83
  -1   8   0   16.54    4.36
  -2   8   0  799.94   34.82
  -3   8   0   52.69    8.83
   3  -8   0   45.49    9.88
   4  -8   0  275.71   15.07
  -4   8   0  286.29   22.13
   4  -8   0  329.10   27.99
   5  -8   0  180.48   10.86
  -5   8   0  303.49   23.69
  -6   8   0  106.07   14.85
   6  -8   0   48.55    4.66
  -7   8   0   75.71   13.41
  -8   8   0  217.46   22.95
  -9   8   0  264.83   27.58
 -10   8   0   27.70   10.13
 -11   8   0  145.56   22.52
 -12   8   0   16.87   10.66
 -13   8   0   30.27   11.80
 -14   8   0    9.57    7.04
 -15   8   0   72.60   19.88
 -16   8   0   50.38   17.78
 -16  -8   0   27.71   12.46
 -17   8   0   14.35    7.70
 -17  -8   0   22.00   10.55
 -18  -8   0   19.73   11.42
   0   9   0    3.14    4.36
  -1   9   0  119.66   13.56
  -2   9   0   62.67   10.59
  -3   9   0  168.49   17.24
   4  -9   0  139.28   11.82
  -4   9   0  172.45   17.92
  -5   9   0   29.07    8.45
   5  -9   0   22.63    4.16
   6  -9   0   36.06    4.24
  -6   9   0   69.23   12.25
  -7   9   0   14.34    6.74
  -8   9   0  102.42   16.45
  -9   9   0   90.98   16.29
 -10   9   0  161.87   22.73
 -11   9   0   17.23    8.53
 -12   9   0   13.21    8.36
 -13   9   0   17.29    9.74
 -14   9   0   33.38   13.15
 -15   9   0   46.16   16.49
 -16   9   0   37.39   15.35
 -17  -9   0   40.03   14.80
   0  10   0    5.02    4.44
  -1  10   0  153.12   16.74
  -2  10   0  165.60   17.27
  -3  10   0    5.72    4.58
  -4  10   0    9.43    5.09
   4 -10   0   10.16    3.74
  -5  10   0  116.69   15.72
   5 -10   0   89.48    9.43
  -6  10   0  143.31   18.54
   6 -10   0   54.92    6.01
  -7  10   0   64.41   12.74
  -8  10   0   85.28   15.22
  -9  10   0  184.06   22.97
 -10  10   0   -0.02    3.94
 -11  10   0    8.76    7.77
 -12  10   0   70.78   16.63
 -13  10   0   12.98    8.09
 -14  10   0   28.87   12.99
 -15  10   0   77.35   20.98
 -16  10   0   82.78   21.97
 -17 -10   0   40.39   15.17
   0  11   0    7.97    6.47
  -1  11   0  186.90   19.37
  -2  11   0   90.72   13.63
  -3  11   0  142.14   17.16
   4 -11   0  150.22   14.14
  -4  11   0  204.79   20.91
   5 -11   0   35.84    6.54
  -5  11   0   41.87   10.45
   6 -11   0   67.22    7.64
  -6  11   0  147.26   18.77
  -7  11   0   25.59    8.10
   7 -11   0    5.25    1.64
  -8  11   0  127.18   18.81
  -9  11   0   52.08   13.37
 -10  11   0  108.30   19.46
 -11  11   0   66.21   16.50
 -12  11   0    9.77    8.98
 -13  11   0   32.07   12.67
 -14  11   0   25.49   13.92
 -15  11   0   37.24   16.52
 -16  11   0   45.09   18.02
   0  12   0  117.02   16.06
  -1  12   0   43.17    9.93
   1  12   0   48.77   10.93
  -2  12   0  297.77   25.29
  -3  12   0   11.60    4.75
   4 -12   0   39.41    7.98
  -4  12   0   71.01   13.23
   5 -12   0   80.51   10.27
  -5  12   0  113.17   16.49
   6 -12   0    3.79    1.74
  -6  12   0   13.78    7.58
  -7  12   0   18.15    6.89
  -8  12   0  160.06   21.37
  -9  12   0  166.03   22.35
 -10  12   0   14.76    8.78
 -11  12   0   29.68   11.96
 -12  12   0   16.78   10.45
 -13  12   0    9.22    6.34
 -14  12   0    7.01    7.40
 -15  12   0   74.37   20.96
   0  13   0    3.66    5.76
  -1  13   0  285.61   25.45
   1  13   0  260.01   25.16
  -2  13   0   12.68    6.77
  -3  13   0  532.45   35.74
  -4  13   0  168.14   20.51
   4 -13   0  108.48   13.77
   5 -13   0   59.03    9.76
  -5  13   0   92.72   15.88
  -6  13   0   42.09   10.60
  -7  13   0  125.15   18.95
  -8  13   0   77.52   15.19
  -9  13   0   89.18   17.19
 -10  13   0  155.49   23.77
 -11  13   0   17.33    9.36
 -12  13   0   20.46   11.61
 -13  13   0    9.85    8.57
 -14  13   0   70.96   20.53
 -15  13   0   15.62   11.34
   0  14   0  159.53   19.93
   1  14   0   -0.43    5.02
  -1  14   0    1.24    3.99
  -2  14   0  377.72   30.54
   2  14   0  390.47   33.52
  -3  14   0   79.94   14.38
  -4  14   0  347.69   30.09
  -5  14   0   98.58   16.34
  -6  14   0  183.06   22.67
  -7  14   0   32.17   10.26
  -8  14   0   92.77   17.47
  -9  14   0  105.37   18.82
 -10  14   0   11.66    7.03
 -11  14   0   94.99   20.86
 -12  14   0    5.26    2.39
 -13  14   0   28.06   13.37
 -14  14   0    8.11    7.19
   0  15   0    9.62    7.30
   1  15   0   34.71    9.70
  -1  15   0   54.03   12.12
  -2  15   0   43.49   11.50
   2  15   0   59.80   14.02
  -3  15   0  217.25   23.86
  -4  15   0   64.22   12.75
  -5  15   0  115.20   18.31
  -6  15   0    6.29    5.98
  -7  15   0   30.41   11.73
  -8  15   0   18.40    7.97
  -9  15   0   11.31    8.57
 -10  15   0   75.44   16.97
 -11  15   0   17.93    9.10
 -12  15   0   29.71   13.00
 -13  15   0   16.03   12.66
 -14  15   0   13.09   10.25
   0  16   0    2.43    5.83
  -1  16   0   20.55    8.60
   1  16   0   17.02    6.68
   2  16   0   39.74   12.06
  -2  16   0   33.05    9.43
   3  16   0   80.12   16.88
  -3  16   0   95.55   16.73
  -4  16   0   67.44   14.34
  -5  16   0   26.43    9.66
  -6  16   0   23.28   10.67
  -7  16   0    4.97    3.90
  -8  16   0   11.07    8.71
  -9  16   0   37.26   13.29
 -10  16   0   33.61   12.88
 -11  16   0   47.13   15.39
 -12  16   0    5.34    8.43
 -13  16   0   26.61   13.26
   0  17   0    3.39    4.81
   1  17   0   23.61   10.56
  -1  17   0    6.74    6.78
   2  17   0   26.48   11.43
  -2  17   0   29.64   10.38
   3  17   0   11.99    6.74
  -3  17   0   14.16    7.67
  -4  17   0    6.39    7.01
  -5  17   0   36.09   12.01
  -6  17   0   14.41    9.03
  -7  17   0    4.77    5.47
  -8  17   0   24.83   10.79
  -9  17   0   29.71   11.17
 -10  17   0   18.79    8.09
 -11  17   0   17.46   10.63
 -12  17   0   29.24   13.38
   0  18   0   49.53   13.77
  -1  18   0   19.35    9.09
   1  18   0   24.34    9.97
  -2  18   0   19.93    8.17
   2  18   0   14.27    9.15
   3  18   0   12.51    8.36
  -3  18   0    8.69    7.71
   4  18   0   14.35   10.82
  -4  18   0   17.41    8.92
  -5  18   0   11.19    8.74
  -6  18   0   12.38    8.61
  -7  18   0   35.22   14.02
  -8  18   0   15.04    8.97
  -9  18   0   21.76   10.36
 -10  18   0   25.44   12.11
 -11  18   0   18.20   10.29
   0  19   0   26.13   15.85
  -1  19   0  166.44   23.93
  -2  19   0    9.00   10.17
  -3  19   0   27.93   10.05
  -4  19   0    9.31    7.24
  -5  19   0   36.07   12.57
  -6  19   0   60.61   15.57
  -7  19   0   35.33   13.33
  -8  19   0   69.83   17.48
  -9  19   0   11.98    7.91
 -10  19   0   19.12   11.24
 -11  19   0   13.28    9.13
  -6  20   0   58.91   18.02
  -7  20   0   96.76   21.32
  -8  20   0   22.96   11.07
  -9  20   0   20.38   10.18
 -10  20   0   46.90   16.53
 -17   0   1    6.37    5.10
 -16   0   1    5.65    6.10
 -15   0   1    1.58    3.78
 -14   0   1    1.25    0.12
 -13   0   1    3.46    1.62
 -12   0   1    8.22    4.84
 -11   0   1    0.73    3.15
 -10   0   1    5.44    4.43
  -9   0   1    2.15    2.15
  -8   0   1   -1.79    1.01
  -7   0   1   -0.66    1.74
  -6   0   1    1.41    1.70
  -5   0   1    0.34    1.15
  -4   0   1    0.09    0.69
  -3   0   1   -0.90    0.82
  -2   0   1    3.37    1.88
  -2   0  -1    0.81    0.51
  -3   0  -1    4.33    2.39
  -4   0  -1    0.69    2.53
  -5   0  -1    1.25    2.06
  -6   0  -1    1.09    1.46
  -7   0  -1    3.59    3.11
  -8   0  -1    2.72    2.82
  -9   0  -1    0.95    2.74
 -10   0  -1    6.36    2.76
 -11   0  -1    9.68    7.55
 -12   0  -1    8.25    8.49
 -13   0  -1    5.18    7.35
 -14   0  -1    4.67    4.22
 -14   0  -1   13.55    8.89
 -15   0  -1    3.74    4.32
 -16   0  -1    2.21    2.08
 -18  -1   1    3.92    5.21
 -17   1   1   12.22    7.26
 -17  -1   1    6.71    4.13
 -16  -1   1    7.16    5.74
 -16   1   1   10.28    6.93
 -15   1   1   20.78    7.96
 -15  -1   1   33.49    9.90
 -14  -1   1   33.64    8.90
 -14   1   1   31.24    8.50
 -13  -1   1   17.16    7.46
 -13   1   1   14.28    6.20
 -12   1   1   21.24    6.25
 -12  -1   1   24.28    7.95
 -11   1   1    5.04    3.30
 -11  -1   1   -0.61    3.15
 -10   1   1   19.13    5.20
 -10  -1   1   30.06    7.97
  -9  -1   1   22.63    7.68
  -9   1   1   25.39    6.75
  -8  -1   1    2.21    2.03
  -8   1   1    7.72    3.91
  -7   1   1  160.44   14.35
  -7  -1   1  153.37   15.92
  -6   1   1   -0.18    1.51
  -6   1   1    3.10    2.62
  -6  -1   1    6.35    3.94
  -5  -1   1  142.20   13.24
  -5   1   1  134.84   13.59
   5  -1  -1  141.26   12.67
  -5   1   1  146.77   12.10
  -4   1   1  145.62   11.23
   4  -1  -1  151.75   11.75
  -4  -1   1  145.79   12.43
  -3   1   1  264.44   13.72
  -3  -1   1  233.64   14.00
  -2  -1   1   23.21    4.05
  -2   1   1   26.04    4.04
  -2  -1  -1    3.80    1.52
  -2   1  -1    0.26    0.54
  -3   1  -1  802.23   27.07
  -3  -1  -1  862.07   25.88
  -4  -1  -1   11.48    3.30
  -4   1  -1   12.31    4.25
  -5  -1  -1  131.29   14.71
  -5   1  -1  172.36   16.03
  -6   1  -1   77.74   12.35
   6   1   1   62.21   10.68
  -6  -1  -1   78.27   11.59
  -7   1  -1   15.44    6.71
   7   1   1   14.27    5.56
  -7  -1  -1   10.86    6.27
  -8  -1  -1    7.01    5.81
  -8   1  -1    7.66    4.91
  -9  -1  -1   11.47    6.98
  -9   1  -1    3.13    3.67
 -10   1  -1   71.79   14.31
 -10  -1  -1   56.42   12.92
 -11   1  -1   18.18    8.90
 -11  -1  -1   23.05    7.71
 -12   1  -1    2.94    1.03
 -12  -1  -1   12.69    7.23
 -13   1  -1   39.43    8.76
 -13   1  -1   60.30   14.98
 -14   1  -1    7.43    4.68
 -14   1  -1   20.18   11.10
 -15  -1  -1   17.76    8.48
 -15   1  -1   17.79    9.75
 -15   1  -1    9.53    4.27
 -16  -1  -1    2.71    2.24
 -17  -1  -1    4.67    4.04
 -18  -2   1    7.80    4.00
 -17  -2   1    1.06    2.51
 -16   2   1    4.34    5.19
 -16  -2   1    7.04    6.96
 -15   2   1    9.89    5.85
 -15  -2   1    9.08    6.14
 -14  -2   1   85.48   15.46
 -14   2   1   90.99   14.83
 -13   2   1   21.50    7.25
 -13  -2   1   18.12    7.53
 -12   2   1    9.72    5.53
 -12  -2   1   15.62    6.63
 -11   2   1   22.65    6.69
 -11  -2   1   23.93    7.50
 -10   2   1   48.70   11.77
 -10   2   1   22.41    5.78
 -10  -2   1   38.63    9.70
  -9   2   1    2.00    1.88
  -9   2   1    5.94    4.40
  -9  -2   1    1.29    3.64
  -8  -2   1   43.86    9.47
  -8   2   1   62.88   11.88
  -8   2   1   33.81    7.12
  -7   2   1   90.00   10.48
  -7   2   1  114.11   15.40
  -7  -2   1   83.72   12.33
   6  -2  -1  103.77   11.56
  -6  -2   1   84.11   11.32
  -6   2   1  107.52   10.75
  -6   2   1  122.86   14.51
  -5  -2   1   64.50    9.28
  -5   2   1   73.80    8.16
   5  -2  -1   75.82    8.76
  -5   2   1   82.76   11.20
  -4   2   1  160.12   11.63
  -4   2   1  148.28   13.21
  -4  -2   1  146.07   12.75
   4  -2  -1  133.25   10.65
  -3  -2   1  738.98   26.28
  -3   2   1  673.84   22.44
  -2   2   1    0.26    1.22
  -2  -2   1    0.53    0.14
  -2   2   1    1.43    0.73
  -1   2   1    9.68    1.68
  -1  -2   1   13.48    2.85
  -1   2   1   12.53    3.11
  -1   2  -1    2.76    1.87
   1  -2   1    1.01    0.48
   2   2   1  180.05    8.77
  -2   2  -1  190.77    7.86
  -2   2  -1  178.01   12.66
  -2  -2  -1  156.90    8.88
   2  -2   1  201.32    7.69
  -3   2  -1   58.09    4.57
   3   2   1   49.37    6.12
  -3   2  -1   58.67    7.49
  -3  -2  -1   56.44    6.77
  -4   2  -1  445.09   23.12
  -4  -2  -1  461.53   22.47
   4   2   1  384.44   20.14
   5   2   1   53.78    8.75
  -5  -2  -1   47.44    8.31
  -5   2  -1   45.60    8.30
  -6  -2  -1    8.30    4.75
  -6   2  -1    7.59    4.36
   6   2   1    6.77    3.45
  -7  -2  -1  257.01   22.63
   7   2   1  257.52   22.30
  -7   2  -1  247.36   22.27
  -8   2  -1   68.62   12.70
  -8  -2  -1   66.65   12.00
  -9   2  -1   -2.19    1.55
  -9  -2  -1    3.23    4.81
 -10  -2  -1   16.06    6.70
 -10   2  -1    5.15    1.33
 -11   2  -1   38.67   11.43
 -11   2  -1   44.32    8.33
 -12   2  -1   42.55    8.42
 -12   2  -1   51.83   13.16
 -13   2  -1    0.12    1.52
 -13   2  -1    7.93    4.26
 -14   2  -1  122.65   15.96
 -14   2  -1  172.08   26.75
 -15   2  -1    6.51    4.24
 -15   2  -1   11.68    9.70
 -16  -2  -1   17.71    8.21
 -16   2  -1    4.80    6.18
 -17  -2  -1   20.06    9.32
 -19  -3   1    2.87    5.19
 -18  -3   1   29.78   10.28
 -17  -3   1   -3.19    4.55
 -16  -3   1   -3.55    1.64
 -15   3   1   17.60    6.97
 -15  -3   1   14.77    7.93
 -14   3   1   42.01    9.96
 -14  -3   1   45.53   12.76
 -13   3   1   30.44    7.91
 -13  -3   1   20.09    7.36
 -12  -3   1    9.31    5.67
 -12   3   1   14.84    5.79
 -12   3   1   16.22    8.02
 -11   3   1  105.14   18.11
 -11   3   1   62.29   10.24
 -11  -3   1   78.02   14.24
 -10   3   1   20.72    7.27
 -10   3   1   36.57    7.94
 -10  -3   1   30.33    9.73
  -9   3   1    3.45    4.11
  -9   3   1    6.71    5.06
  -9  -3   1    6.50    4.10
  -8   3   1   42.05    9.80
  -8  -3   1   31.95    8.11
  -8   3   1   35.48    6.66
  -7   3   1  127.72   11.99
  -7   3   1  140.67   17.08
   6  -3  -1   21.22    4.84
  -6   3   1   25.95    5.54
  -6   3   1   26.63    6.92
  -5   3   1   50.11    6.68
   5  -3  -1   51.09    6.71
  -5   3   1   49.65    8.90
  -4   3   1  544.81   21.88
  -4   3   1  454.50   24.00
   4  -3  -1  562.57   21.54
  -3   3   1  234.46   14.61
  -3   3   1  252.27   13.93
   3  -3  -1  236.51   13.90
  -2   3   1   40.00    5.69
  -2   3   1   35.20    4.77
  -2  -3   1   42.37    6.44
   2  -3  -1   41.08    5.08
  -1  -3   1   31.88    5.10
   1  -3  -1   29.73    3.53
  -1   3   1   27.19    3.19
   0  -3   1   26.37    3.78
  -1   3  -1   14.84    2.57
   1  -3   1   12.68    2.45
  -1   3  -1   14.55    3.66
  -2   3  -1  136.03   12.08
   2   3   1  151.42    8.45
   3   3   1  551.69   21.39
  -3   3  -1  637.39   27.49
  -4   3  -1   77.55   10.42
   4   3   1   65.76    8.46
  -5   3  -1   59.27    9.83
   5   3   1   44.55    7.90
   6   3   1  151.86   16.19
  -6   3  -1  160.56   16.67
  -7   3  -1   25.44    7.30
   7   3   1   25.14    7.66
  -8   3  -1   41.90   10.32
  -9   3  -1    4.24    2.94
  -9   3  -1   -1.01    1.55
 -10   3  -1  117.43   19.18
 -10   3  -1   95.99   10.81
 -11   3  -1    6.66    6.28
 -11   3  -1    9.09    4.29
 -12   3  -1    8.69    6.68
 -12   3  -1    1.87    3.02
 -13   3  -1   71.32   17.35
 -13   3  -1   43.87    8.29
 -14   3  -1   23.69   10.16
 -14   3  -1    3.63    3.60
 -15   3  -1   24.70   10.87
 -16   3  -1   11.58    8.91
 -17  -3  -1   15.09    8.73
 -17   3  -1   20.59   10.28
 -18  -3  -1    8.46    4.92
 -19  -4   1    1.72    4.23
 -18  -4   1    8.56    7.96
 -17  -4   1   19.28    9.23
 -16  -4   1    9.14    6.96
 -15   4   1    6.40    5.28
 -15  -4   1    5.07    4.51
 -14   4   1   37.41   11.97
 -14   4   1   21.11    6.96
 -14  -4   1   37.20   10.96
 -13   4   1    5.48    4.39
 -13  -4   1    7.56    4.63
 -13   4   1    5.73    5.27
 -12  -4   1   21.87    9.58
 -12   4   1   19.02    6.07
 -12   4   1   24.11    8.82
 -11   4   1    4.56    3.70
 -11   4   1   14.36    7.81
 -11  -4   1   16.33    7.25
 -10   4   1   96.41   12.17
 -10  -4   1  113.11   17.05
  -9   4   1   -0.52    4.16
  -9   4   1    4.50    3.10
  -8   4   1   25.70    5.66
  -8   4   1   30.44    9.42
   7  -4  -1  222.61   16.38
  -7   4   1  220.17   15.82
  -7   4   1  231.86   22.84
  -6   4   1   38.57    6.54
   6  -4  -1   39.48    6.35
  -6   4   1   30.07    7.33
  -5   4   1    1.83    2.02
   5  -4  -1   -0.65    0.78
  -5   4   1   -1.37    1.36
   5  -4  -1   -0.78    3.40
   4  -4  -1   52.38    9.10
  -4   4   1   42.87    6.95
  -4   4   1   36.77    5.48
   4  -4  -1   43.47    6.34
   3  -4  -1   97.80    9.62
  -3   4   1   94.50    8.71
  -3   4   1   85.57    9.06
   3  -4  -1   97.60   10.30
  -2   4   1   11.44    2.95
   2  -4  -1   11.31    3.49
   2  -4  -1    9.14    3.17
  -1   4   1  176.43    8.94
   1  -4  -1  186.27   10.47
   0   4   1  881.51   17.18
   0  -4   1  966.13   25.35
   1  -4   1    6.85    2.17
  -1   4  -1    7.53    3.74
   2  -4   1   51.11    4.26
  -2   4  -1   66.32    9.56
   3   4   1   13.72    3.35
  -3   4  -1   12.23    3.47
  -4   4  -1   32.60    7.78
   4   4   1   36.04    6.71
  -5   4  -1   12.94    4.44
   5   4   1   19.46    6.61
   6   4   1  128.93   15.25
  -6   4  -1  155.15   16.68
   7   4   1  168.41   18.25
  -7   4  -1  168.93   18.57
  -8   4  -1   26.42    7.99
  -8   4  -1   14.52    3.02
  -9   4  -1   43.27    5.77
  -9   4  -1   42.84   11.54
 -10   4  -1   22.68    4.80
 -10   4  -1   35.45   11.28
 -11   4  -1   22.50    4.99
 -11   4  -1   42.55   13.44
 -12   4  -1    8.14    3.69
 -12   4  -1   12.30    8.62
 -13   4  -1   28.47   10.55
 -13   4  -1   22.88    5.92
 -14   4  -1   16.16    9.28
 -15   4  -1    7.22    7.60
 -16   4  -1   15.66    8.84
 -17  -4  -1   14.11    7.90
 -17   4  -1   11.65    9.73
 -18  -4  -1    8.73    7.73
 -18   4  -1   32.79   15.25
 -19  -5   1    4.22    3.39
 -18  -5   1   15.40    8.44
 -17  -5   1   20.47   10.21
 -16  -5   1    4.60    4.77
 -15  -5   1   -0.01    3.67
 -15   5   1   20.34   10.02
 -14  -5   1   13.50    7.98
 -14   5   1    9.72    6.82
 -14   5   1    0.54    2.60
 -13  -5   1   13.52    7.26
 -13   5   1    4.68    4.59
 -13   5   1    6.36    3.37
 -12   5   1   68.61   10.70
 -12   5   1  106.77   19.05
 -12  -5   1   86.08   17.62
 -11   5   1  112.40   13.44
 -11  -5   1  111.71   17.75
 -10   5   1   -3.70    4.21
 -10   5   1    2.78    1.94
  -9   5   1   58.79   12.81
  -9   5   1   53.99    8.44
  -8   5   1   84.47   10.42
   8  -5  -1   69.35    9.67
  -8   5   1   66.16   12.62
  -7   5   1   22.77    5.10
   7  -5  -1   26.55    5.71
  -7   5   1   19.54    6.91
   6  -5  -1  206.10   14.51
  -6   5   1  211.25   19.03
  -6   5   1  202.79   14.25
   6  -5  -1  224.51   21.96
   5  -5  -1  310.35   23.73
   5  -5  -1  266.36   15.89
  -5   5   1  291.40   16.38
  -5   5   1  287.06   20.49
   4  -5  -1   72.05   10.69
   4  -5  -1   71.80    8.38
  -4   5   1   63.87    7.61
  -4   5   1   65.36    9.39
   3  -5  -1   43.10    6.34
   3  -5  -1   48.74    8.15
  -3   5   1   36.66    6.10
  -2   5   1   90.57    8.29
   2  -5  -1  113.99   10.70
   2  -5  -1   95.09    9.71
  -1   5   1  243.23   11.99
   1  -5  -1  231.51   13.84
   0   5   1  140.01    8.42
  -1   5  -1  795.32   32.09
   2  -5   1  155.14    8.74
  -2   5  -1  156.78   14.64
  -3   5  -1    1.34    1.68
  -4   5  -1   43.66    8.34
   4   5   1   57.18    8.10
  -5   5  -1  293.16   22.58
   5   5   1  304.44   20.85
  -6   5  -1    6.01    4.88
   6   5   1   15.98    6.40
  -7   5  -1   70.35   12.19
   7   5   1   54.54   10.41
  -8   5  -1   18.81    2.86
  -8   5  -1   42.72   10.04
  -9   5  -1    6.09    5.89
  -9   5  -1    2.30    1.24
 -10   5  -1   19.56    3.88
 -10   5  -1   26.99   10.35
 -11   5  -1   77.29    8.19
 -11   5  -1  148.96   22.67
 -12   5  -1    2.21    1.62
 -12   5  -1    9.08    3.51
 -13   5  -1    8.52    6.55
 -14   5  -1    7.45    8.19
 -15   5  -1   -0.39    3.20
 -16   5  -1   13.53    8.22
 -17   5  -1   50.36   17.16
 -18  -5  -1    3.39    3.55
 -19  -5  -1    0.41    4.86
 -19  -6   1    8.18    6.83
 -18  -6   1   14.12    9.25
 -17  -6   1   14.17    7.47
 -16  -6   1   43.76   13.93
 -16   6   1   32.09   13.07
 -15   6   1   24.59   10.37
 -15  -6   1   23.08   10.02
 -14  -6   1    6.87    7.27
 -14   6   1   15.11   10.07
 -13   6   1   30.01    7.51
 -13  -6   1   59.51   14.49
 -13   6   1   52.37   13.65
 -12  -6   1   28.11   10.36
 -12   6   1   16.55    8.12
 -12   6   1   12.67    4.60
 -11   6   1   31.61    6.96
 -11   6   1   32.30   12.05
 -10   6   1   20.01    5.80
 -10   6   1   19.07    8.06
  -9   6   1   35.35    6.61
  -9   6   1   21.21    6.62
  -8   6   1   31.17    6.05
   8  -6  -1   15.07    4.31
  -8   6   1   21.83    7.07
   7  -6  -1   12.69    4.01
  -7   6   1   12.95    6.20
  -7   6   1   10.08    3.64
  -6   6   1  266.89   22.16
  -6   6   1  268.78   16.44
   6  -6  -1  265.59   16.38
   5  -6  -1    3.83    5.32
   5  -6  -1    1.16    0.76
  -5   6   1    5.89    3.95
  -5   6   1    4.41    2.43
   4  -6  -1   49.45    7.36
   4  -6  -1   49.42    9.87
  -4   6   1   44.33    7.64
   3  -6  -1    3.51    2.43
   3  -6  -1    2.42    2.03
  -3   6   1    0.89    1.78
   2  -6  -1   96.66   10.68
   2  -6  -1   98.34   10.43
  -2   6   1   97.72    9.15
  -1   6   1  128.28    9.78
   0   6   1  122.03    9.06
  -1   6  -1   90.41   11.61
  -2   6  -1    9.45    3.89
  -3   6  -1   21.24    6.56
   3  -6   1    7.56    1.71
  -4   6  -1   18.38    6.23
   5   6   1  153.20   14.96
  -5   6  -1  139.03   16.35
  -6   6  -1  177.51   18.44
   6   6   1  191.17   17.85
  -7   6  -1   13.25    5.87
   7   6   1   17.08    5.70
  -8   6  -1   18.88    7.30
  -9   6  -1   38.09   10.61
 -10   6  -1    3.90    1.41
 -10   6  -1   15.73    8.90
 -11   6  -1    5.13    8.11
 -11   6  -1    0.66    1.11
 -12   6  -1   43.97   14.28
 -13   6  -1   22.20   10.22
 -14   6  -1    3.01    4.66
 -15   6  -1   32.35   12.42
 -16   6  -1   32.27   14.17
 -17   6  -1   10.02    8.52
 -18  -6  -1    2.27    5.09
 -19  -6  -1   15.08    8.86
 -18  -7   1    5.27    6.88
 -17  -7   1    2.00    4.42
 -16   7   1   20.79   10.95
 -16  -7   1    9.16    7.70
 -15  -7   1   19.61    9.99
 -15   7   1   33.54   12.61
 -14  -7   1    4.90    5.38
 -14   7   1   11.73    8.06
 -13  -7   1   10.06    6.91
 -13   7   1   21.13   10.16
 -12   7   1   66.00    9.93
 -12   7   1  108.24   20.42
 -11   7   1    5.01    2.79
 -11   7   1    3.26    1.95
 -10   7   1   25.77    5.71
 -10   7   1   24.27    8.93
  -9   7   1   25.09    9.66
  -9   7   1   44.76    7.50
  -8   7   1   51.83    7.48
  -8   7   1   67.10   12.89
   8  -7  -1   44.77    7.34
   7  -7  -1    3.17    2.68
  -7   7   1    3.15    2.30
  -7   7   1    0.48    3.32
   6  -7  -1   18.60    4.63
  -6   7   1   21.51    6.96
   5  -7  -1  300.20   18.54
   5  -7  -1  339.81   27.11
  -5   7   1  287.86   21.53
   4  -7  -1    6.52    2.42
   4  -7  -1    6.71    2.88
  -4   7   1    5.03    3.77
  -3   7   1   52.79    7.60
   3  -7  -1   52.44   10.00
   3  -7  -1   53.38    8.18
  -2   7   1  134.13   11.49
   2  -7  -1  154.59   14.32
   2  -7  -1  159.58   15.27
  -1   7   1   62.14    7.56
   0   7   1   26.47    4.52
  -1   7  -1    1.65    2.98
  -2   7  -1  363.76   24.70
   3  -7   1    8.17    2.44
  -3   7  -1    5.98    4.34
  -4   7  -1   50.67    9.78
  -5   7  -1  121.42   15.73
   6   7   1   17.11    6.09
  -6   7  -1   15.67    6.08
  -7   7  -1   10.80    5.97
   7   7   1   12.93    5.33
  -8   7  -1   13.26    7.51
  -9   7  -1  127.02   18.91
 -10   7  -1    1.66    6.27
 -11   7  -1    4.30    4.88
 -12   7  -1   55.47   15.20
 -13   7  -1    5.23    2.81
 -14   7  -1    1.41    5.46
 -15   7  -1    4.01    3.24
 -16   7  -1   30.27   12.92
 -17   7  -1   18.20   11.32
 -18  -7  -1    6.87    8.13
 -18  -8   1   15.67   10.64
 -17  -8   1   13.00    9.11
 -17   8   1    9.98    9.56
 -16   8   1   24.29   11.53
 -16  -8   1   22.75   11.26
 -15  -8   1   20.55   10.77
 -15   8   1   48.95   15.22
 -14   8   1    5.97    5.82
 -14  -8   1    9.62    5.18
 -13   8   1   15.79    8.85
 -13  -8   1   23.01   10.20
 -12   8   1   24.40    9.22
 -11   8   1   15.62    6.45
 -11   8   1    6.69    3.34
 -10   8   1   15.64    4.68
 -10   8   1   20.60    8.34
   9  -8  -1  105.69   11.26
  -9   8   1  127.19   19.10
  -9   8   1  125.89   11.51
  -8   8   1   90.19   14.88
   8  -8  -1   79.06    9.38
  -7   8   1    3.79    3.89
   7  -8  -1    8.45    3.19
  -6   8   1   47.33   10.35
   6  -8  -1   37.46    6.50
   5  -8  -1   16.98    4.77
   5  -8  -1    7.95    5.24
  -5   8   1   16.63    5.22
   4  -8  -1   -0.47    0.95
   4  -8  -1    2.61    4.93
  -4   8   1    4.40    3.97
  -3   8   1   15.99    4.93
   3  -8  -1   19.78    7.12
   3  -8  -1   14.41    4.90
   2  -8  -1  359.34   22.90
  -2   8   1  317.12   18.85
  -1   8   1    4.52    3.57
   0   8   1   66.38    8.38
  -1   8  -1  476.12   29.83
  -2   8  -1   46.65    8.71
  -3   8  -1  140.02   16.74
  -4   8  -1    8.22    4.53
   4  -8   1    5.86    1.52
  -5   8  -1   83.07   13.60
  -6   8  -1   10.09    5.65
  -7   8  -1    3.39    4.06
  -8   8  -1  391.62   31.66
  -9   8  -1   14.68    6.25
 -10   8  -1   82.79   15.79
 -11   8  -1   14.77    8.39
 -12   8  -1    2.92    3.74
 -13   8  -1   15.42    7.55
 -14   8  -1    6.65    5.08
 -15   8  -1   24.13   12.64
 -16   8  -1   16.30   10.24
 -17   9   1   10.63    8.00
 -17  -9   1   -0.69    1.64
 -16  -9   1   13.22    7.77
 -16   9   1   29.73   12.39
 -15   9   1   -1.31    4.04
 -15  -9   1   19.77   10.35
 -14   9   1    7.57    8.65
 -14  -9   1   14.37    8.21
 -13   9   1   22.29   11.33
 -12   9   1   21.32   10.37
 -11   9   1    6.16    6.82
 -10   9   1   24.64    8.96
   9  -9  -1   96.55   10.54
  -9   9   1  134.78   19.37
  -8   9   1   95.88   15.90
   8  -9  -1   83.77    9.50
   7  -9  -1   12.49    3.80
  -7   9   1   19.14    7.63
  -6   9   1   25.68    7.39
   6  -9  -1   29.11    5.94
   5  -9  -1   14.05    5.08
  -5   9   1   16.80    6.27
   4  -9  -1    0.68    3.94
   4  -9  -1    2.49    2.66
  -4   9   1    2.84    3.47
  -3   9   1  206.21   16.90
   3  -9  -1  213.95   20.83
   3  -9  -1  213.24   18.49
  -2   9   1   20.64    5.85
  -1   9   1  247.87   17.18
   0   9   1   25.70    5.58
  -1   9  -1   48.60    9.70
   1   9   1   29.07    6.23
  -2   9  -1  168.26   18.85
  -3   9  -1   71.51   12.96
   4  -9   1    8.28    2.15
  -4   9  -1   11.02    4.75
  -5   9  -1    1.94    3.78
  -6   9  -1   -0.87    1.17
  -7   9  -1   61.29   12.50
  -8   9  -1    2.47    5.76
  -9   9  -1  139.17   20.38
 -10   9  -1   11.00    7.15
 -11   9  -1    1.24    4.74
 -12   9  -1   15.73    7.65
 -13   9  -1   20.25   10.34
 -14   9  -1    2.83    5.84
 -15   9  -1   15.94   11.25
 -16   9  -1   36.70   15.60
 -17 -10   1    5.38    6.50
 -16 -10   1   15.12   10.44
 -16  10   1   23.97   11.22
 -15 -10   1   10.14    7.43
 -15  10   1   16.45    9.59
 -14 -10   1   15.99   10.24
 -14  10   1    2.19    3.07
 -13  10   1    8.98    8.80
 -12  10   1    3.16    5.93
 -11  10   1    0.65    4.60
 -10  10   1    2.06    4.75
  -9  10   1    7.62    4.41
  -8  10   1    7.93    5.44
   8 -10  -1    0.67    1.49
   7 -10  -1    3.31    2.32
  -7  10   1    6.13    6.36
  -6  10   1    3.27    4.55
   6 -10  -1    1.19    1.93
  -5  10   1    1.49    3.54
   5 -10  -1    4.43    3.51
   4 -10  -1   17.11    5.93
  -4  10   1   15.74    6.30
  -3  10   1    1.37    3.38
   3 -10  -1    3.44    3.68
  -2  10   1   -1.42    3.01
  -1  10   1    2.95    3.97
   0  10   1   -1.12    2.78
   0  10  -1    1.30    4.43
  -1  10  -1   45.74   10.69
   1  10   1   35.57    7.30
  -2  10  -1    1.31    3.63
  -3  10  -1   18.94    6.89
  -4  10  -1    0.72    1.59
   5 -10   1    0.34    0.72
  -5  10  -1    2.42    3.28
  -6  10  -1   -2.60    0.61
  -7  10  -1    0.38    3.92
  -8  10  -1   24.85    8.67
  -9  10  -1   15.78    7.33
 -10  10  -1    7.90    8.03
 -11  10  -1   18.28   10.07
 -12  10  -1    2.91    6.92
 -13  10  -1    6.23    6.42
 -14  10  -1    7.12    9.01
 -15  10  -1   12.11    8.48
 -16  10  -1    8.95    4.68
 -16 -11   1   15.91   11.42
 -16  11   1   16.40   10.49
 -15 -11   1    2.39    4.51
 -15  11   1   14.27   11.23
 -14 -11   1   10.14    8.83
 -14  11   1   11.99   11.33
 -13  11   1    8.19    7.15
 -12  11   1   -0.33    3.93
 -11  11   1   18.41    8.45
 -10  11   1    3.66    4.70
  -9  11   1   39.12   11.53
  -8  11   1   22.39    8.17
   8 -11  -1   16.91    4.17
  -7  11   1   14.14    6.06
   7 -11  -1    9.16    3.75
  -6  11   1    8.42    5.20
   6 -11  -1    9.49    4.08
   5 -11  -1    6.58    3.60
  -5  11   1    8.34    4.39
   4 -11  -1    1.71    1.98
  -4  11   1    0.75    2.66
  -3  11   1   52.99    9.89
   3 -11  -1   42.64    9.42
  -2  11   1   14.96    5.73
  -1  11   1   59.00   10.03
   0  11   1    8.28    4.42
   0  11  -1    4.88    5.21
   1  11   1   34.80    7.94
  -1  11  -1   29.17    7.34
  -2  11  -1   16.90    6.93
  -3  11  -1   16.32    6.66
  -4  11  -1    0.37    2.07
   5 -11   1    0.45    1.32
   5 -11   1    2.81    1.44
  -6  11  -1    4.49    4.89
  -7  11  -1   17.97    8.53
  -8  11  -1    2.95    3.18
  -9  11  -1   38.37   12.32
 -10  11  -1    4.38    4.71
 -11  11  -1   11.70    7.76
 -12  11  -1    4.24    5.06
 -13  11  -1    7.12    6.62
 -14  11  -1   -6.49    4.43
 -15  11  -1   -3.66    4.10
 -15  12   1   22.12   10.82
 -15 -12   1   15.61   10.09
 -14  12   1   10.88    9.77
 -14 -12   1    7.90    5.86
 -13  12   1    0.25    4.81
 -12  12   1    7.72    7.74
 -11  12   1   -2.48    6.16
 -10  12   1   37.34   11.72
  -9  12   1   51.08   13.07
  -8  12   1   49.49   13.04
  -7  12   1   22.48    7.52
   6 -12  -1    4.08    3.41
  -6  12   1    9.18    5.82
  -5  12   1   -1.29    3.18
   5 -12  -1    5.83    4.01
   4 -12  -1    9.84    4.86
  -4  12   1   16.47    5.94
  -3  12   1    2.31    4.84
   3 -12  -1    3.90    3.33
  -2  12   1  166.72   17.10
  -1  12   1    3.14    4.48
   0  12   1   91.34   13.37
   0  12  -1  118.78   17.61
   1  12   1   71.88   12.85
  -1  12  -1   82.43   14.50
  -2  12  -1   46.85   10.68
  -3  12  -1   36.23    9.24
  -4  12  -1   11.89    5.60
   5 -12   1   17.10    3.84
   5 -12   1   22.35    4.04
  -6  12  -1   26.37    8.82
  -7  12  -1    7.06    6.35
  -8  12  -1  143.91   21.19
  -9  12  -1    9.81    7.85
 -10  12  -1   49.97   14.48
 -11  12  -1   14.94    9.04
 -12  12  -1   10.75    8.95
 -13  12  -1   16.61    9.41
 -14  12  -1  -10.68    5.81
 -15  12  -1   14.07    8.40
 -15  13   1   -0.46    4.43
 -14 -13   1   17.89   11.39
 -14  13   1    6.61    5.55
 -13  13   1    4.63    4.16
 -12  13   1   18.26    8.27
 -11  13   1   19.10   10.26
 -10  13   1   36.90   12.06
  -9  13   1  109.29   18.85
  -8  13   1   49.80   13.14
  -7  13   1    9.91    5.85
  -6  13   1   -1.15    3.75
   5 -13  -1   10.66    4.54
  -5  13   1   15.71    6.45
  -4  13   1    7.86    4.43
   4 -13  -1    3.10    3.72
  -3  13   1  131.93   16.09
  -2  13   1   67.68   11.39
  -1  13   1  179.08   18.07
   1  13  -1  166.68   22.83
   0  13  -1   15.63    8.06
   0  13   1    7.84    4.85
  -1  13  -1    9.40    4.85
   1  13   1   19.64    7.21
   2  13   1   45.86   10.61
  -2  13  -1   53.04   12.26
  -3  13  -1    2.99    5.50
  -4  13  -1   46.73   12.03
  -5  13  -1   13.26    7.00
   5 -13   1    9.07    3.03
  -6  13  -1   20.30    8.68
  -7  13  -1   -0.97    3.30
  -8  13  -1    6.16    6.08
  -9  13  -1   74.26   15.88
 -10  13  -1   -3.48    2.69
 -11  13  -1   16.30   11.10
 -12  13  -1    9.74    7.62
 -13  13  -1   25.93   11.97
 -14  13  -1   -3.73    2.06
 -15  14   1   21.46   10.54
 -14  14   1    3.01    6.19
 -14 -14   1   15.84   10.15
 -13  14   1   21.04   11.61
 -12  14   1   12.62    6.90
 -11  14   1   11.73    8.89
 -10  14   1    1.07    5.91
  -9  14   1   16.10    8.29
  -8  14   1   16.44    7.83
  -7  14   1   19.73    9.79
  -6  14   1   60.57   13.58
  -5  14   1    4.40    5.65
  -4  14   1   27.82    8.94
  -3  14   1   19.84    7.71
  -2  14   1   37.24    8.92
   1  14  -1   78.23   15.78
  -1  14   1   86.39   12.67
   0  14  -1   17.66    7.57
   0  14   1   24.79    7.89
  -1  14  -1   75.86   14.66
   1  14   1   67.74   12.43
   2  14   1    3.46    2.99
  -2  14  -1    7.81    6.98
  -3  14  -1   -1.56    4.14
  -4  14  -1   25.09    8.61
  -5  14  -1   61.05   13.16
  -6  14  -1   45.48   12.70
  -7  14  -1   -3.68    3.09
  -8  14  -1   18.93    8.00
  -9  14  -1    1.46    5.87
 -10  14  -1    6.64    6.98
 -11  14  -1    7.61    7.19
 -12  14  -1   41.18   15.89
 -13  14  -1    4.80    3.88
 -14  14  -1    5.87    3.45
 -14  15   1   -1.13    3.74
 -13  15   1    5.63    7.35
 -12  15   1   32.16   11.86
 -11  15   1   22.97    9.65
 -10  15   1   12.49    8.22
  -9  15   1    5.17    5.65
  -8  15   1    4.24    5.25
  -7  15   1   -0.77    4.87
  -6  15   1   21.83    8.10
  -5  15   1   82.24   14.86
  -4  15   1   10.00    7.45
  -3  15   1    8.51    6.75
  -2  15   1   62.34   11.46
   2  15  -1   65.31   15.05
   1  15  -1    8.17    5.20
  -1  15   1   10.58    4.82
   0  15   1   20.07    7.85
   0  15  -1   22.27    9.38
  -1  15  -1  100.50   17.92
   1  15   1   79.53   14.02
   2  15   1   16.73    6.74
  -2  15  -1   24.80    9.25
  -3  15  -1   10.07    5.53
   3  15   1    4.55    6.67
  -4  15  -1   82.44   16.43
  -5  15  -1  124.26   19.74
  -6  15  -1   19.97    8.74
  -7  15  -1   38.05   11.32
  -8  15  -1    5.23    7.00
  -9  15  -1    5.49    5.16
 -10  15  -1   18.92   10.93
 -11  15  -1   55.75   17.89
 -12  15  -1   12.08    6.38
 -13  15  -1   11.76   10.77
 -13  16   1    2.24    5.29
 -12  16   1   15.67    9.79
 -11  16   1   15.32   11.06
 -10  16   1   12.78    9.18
  -9  16   1    6.03    7.24
  -8  16   1   14.46    9.68
  -7  16   1   28.11   11.81
  -6  16   1   23.74    9.43
  -5  16   1    3.81    2.52
  -4  16   1    8.89    6.23
  -3  16   1   -4.14    1.15
   2  16  -1    6.32    6.20
  -2  16   1    9.10    6.29
  -1  16   1   65.41   12.42
   1  16  -1   82.45   17.34
   0  16   1   97.93   14.86
   0  16  -1   94.38   17.38
  -1  16  -1    2.48    4.10
   1  16   1    7.71    6.19
  -2  16  -1   14.93    6.83
   2  16   1    6.95    7.10
  -3  16  -1   22.15    9.85
   3  16   1   17.19    7.60
  -4  16  -1    1.40    1.27
  -5  16  -1   35.87   10.66
  -6  16  -1   86.87   18.09
  -7  16  -1   10.23    6.37
  -8  16  -1    9.40    8.04
  -9  16  -1   20.33   10.48
 -10  16  -1   29.88   12.80
 -11  16  -1   14.96   11.03
 -12  16  -1   17.06   11.30
 -13  17   1    3.34    6.47
 -12  17   1    3.99    7.21
 -11  17   1    2.59    6.85
 -10  17   1    4.90    6.38
  -9  17   1    1.26    4.65
  -8  17   1   18.12   10.37
  -7  17   1   13.41    7.87
  -6  17   1   14.86    8.94
  -5  17   1    7.43    6.43
  -4  17   1   57.71   13.15
  -3  17   1   14.46    6.92
   3  17  -1   13.99   12.08
  -2  17   1    2.64    3.39
   2  17  -1   10.75    8.94
   1  17  -1   17.50    9.56
  -1  17   1   11.53    5.92
   0  17   1   20.27    8.06
   0  17  -1   20.79    8.99
   1  17   1   15.62    6.28
  -1  17  -1    4.08    3.24
   2  17   1    8.15    7.15
  -2  17  -1    4.83    6.38
  -3  17  -1   69.47   16.00
  -4  17  -1    9.00    7.33
  -5  17  -1    4.78    5.31
  -6  17  -1   26.72   10.39
  -7  17  -1   11.05    5.09
  -8  17  -1   17.75    8.68
  -9  17  -1   15.85   10.49
 -10  17  -1   18.14   10.33
 -11  17  -1   10.65    8.85
 -12  18   1    0.72    7.06
 -11  18   1    8.56    8.66
 -10  18   1    6.37    6.37
  -9  18   1   10.91    7.76
  -8  18   1   36.73   13.53
  -7  18   1   17.89    9.03
  -6  18   1   27.50   10.83
  -5  18   1   16.55    8.21
  -4  18   1   34.87   10.47
  -3  18   1   34.10   11.34
   3  18  -1   44.75   15.23
  -2  18   1   46.08   10.81
   2  18  -1   29.18   10.32
   1  18  -1    9.00    7.06
   0  18  -1   16.17    6.94
  -1  18  -1    4.87    7.80
  -2  18  -1   69.07   16.17
  -3  18  -1   21.25   10.52
  -4  18  -1   97.66   18.81
  -5  18  -1    8.13    6.72
  -6  18  -1    2.80    0.95
  -7  18  -1   36.66   13.79
  -8  18  -1    4.25    5.88
  -9  18  -1   23.18   10.66
 -10  18  -1    7.52    7.85
 -11  18  -1   20.88   10.74
   4  19  -1   14.48   11.38
   3  19  -1   69.76   18.69
   2  19  -1    5.96    7.94
   1  19  -1   13.23    8.15
   0  19  -1   10.00    9.24
  -1  19  -1    6.52    8.52
  -2  19  -1    8.19    8.14
  -3  19  -1   89.96   19.70
  -4  19  -1   12.83    8.86
  -5  19  -1    6.14    5.62
  -6  19  -1   16.72   10.23
  -7  19  -1    7.57    7.93
  -8  19  -1   10.08    7.86
  -9  19  -1    1.84    7.41
 -10  19  -1   22.95   11.84
   2  20  -1    9.54    7.89
   1  20  -1    7.77    8.66
   0  20  -1    8.94   11.06
  -1  20  -1   12.79   11.12
  -2  20  -1   19.84   10.39
  -3  20  -1    4.85    7.78
  -4  20  -1   10.38    5.83
  -5  20  -1    9.63    8.50
  -6  20  -1    0.14    6.48
  -7  20  -1   11.27    8.56
  -8  20  -1    8.72    6.38
  -9  20  -1    3.98    5.15
  -3  21  -1    2.56    5.41
  -4  21  -1   25.26   11.97
  -5  21  -1   15.97    8.70
  -6  21  -1   13.53    9.81
  -7  21  -1    2.96    3.28
 -18   0   2   27.37   10.49
 -17   0   2   99.79   18.56
 -16   0   2   55.36   13.97
 -15   0   2   18.08    8.94
 -14   0   2   24.81    9.55
 -13   0   2   23.05    8.83
 -12   0   2  288.42   27.07
 -11   0   2   12.25    5.75
 -10   0   2  475.12   32.10
  -9   0   2    2.54    3.01
  -8   0   2    0.91    1.84
  -7   0   2   37.63    8.96
   7   0  -2   35.93    9.19
   6   0  -2   35.36    8.26
  -6   0   2   25.99    7.15
  -5   0   2  362.87   22.45
  -4   0   2  292.50   19.31
  -3   0   2  922.96   32.69
  -2   0   2    0.75    1.80
  -1   0   2   17.75    4.63
   0   0   2  231.00   15.04
  -1   0  -2   67.96    7.51
   1   0   2   65.40    8.04
  -2   0  -2  190.27   12.82
   2   0   2  204.16   13.98
   3   0   2   35.93    6.18
  -3   0  -2   31.72    5.66
  -3   0  -2   32.00    5.70
   4   0   2  622.89   29.68
  -4   0  -2  570.46   26.07
  -5   0  -2   11.25    4.29
   5   0   2   10.73    4.27
   6   0   2    5.43    5.10
  -6   0  -2    0.50    1.15
  -7   0  -2   73.86   13.30
  -8   0  -2    9.65    4.50
  -9   0  -2  240.61   25.74
 -10   0  -2   45.02   11.97
 -11   0  -2  305.12   32.01
 -12   0  -2   25.21   10.26
 -13   0  -2    0.58    3.90
 -14   0  -2   49.73   14.35
 -15   0  -2   47.12   14.97
 -16   0  -2   56.81   17.76
 -18  -1   2   59.50   15.90
 -17   1   2   33.45   11.06
 -17  -1   2   36.59   12.54
 -16   1   2   16.91    8.24
 -16  -1   2    4.63    5.88
 -15   1   2   55.96   12.67
 -15  -1   2   67.03   14.76
 -14   1   2   45.38   11.65
 -14  -1   2   36.84   10.80
 -13   1   2   35.12    9.76
 -13  -1   2   23.69    7.23
 -12  -1   2   13.13    7.41
 -12   1   2   14.22    5.95
 -11   1   2  265.10   24.27
 -11  -1   2  366.19   29.59
 -10   1   2   29.92    7.70
 -10  -1   2   26.94    7.72
  -9  -1   2   54.37   10.97
  -9   1   2   84.00   12.55
   8  -1  -2   32.09    9.03
  -8  -1   2   30.70    7.38
  -8   1   2   25.21    7.57
  -7  -1   2   35.94    7.95
   7  -1  -2   39.33    9.41
  -7   1   2   40.67    8.38
  -6   1   2   28.17    6.63
   6  -1  -2   30.79    7.12
  -6  -1   2   24.63    6.48
  -5  -1   2   87.60   11.43
  -5   1   2   70.43   10.23
   5  -1  -2   90.03   11.38
  -4   1   2 1109.48   37.68
  -4  -1   2 1119.68   38.17
  -3  -1   2    3.49    2.06
  -3   1   2    1.81    2.31
  -2   1   2  133.05   12.57
  -2  -1   2  140.07   12.19
  -1   1   2   29.76    5.63
  -1  -1   2   41.12    6.19
   0   1   2  214.30   15.13
   0  -1   2  229.57   14.66
   1  -1   2    3.68    1.89
  -1  -1  -2    7.19    2.24
   1   1   2    6.08    2.62
  -1   1  -2    6.03    2.80
   2  -1   2  189.03   13.05
  -2  -1  -2  171.74   11.14
  -2   1  -2  181.22   13.01
  -2   1  -2  179.88   13.63
   2   1   2  185.51   12.16
  -3   1  -2 1302.68   34.58
  -3   1  -2 1232.16   37.88
  -3  -1  -2 1229.26   32.82
   3   1   2 1313.98   35.83
  -4   1  -2   21.63    4.58
  -4   1  -2   20.85    5.22
  -4  -1  -2   24.65    5.97
   4   1   2   19.15    5.84
  -5  -1  -2   44.40    7.72
  -5   1  -2   57.26   10.36
   5   1   2   51.23    9.00
   6   1   2   19.29    6.91
  -6   1  -2   18.58    6.24
   6  -1   2   27.46    8.47
  -6  -1  -2   12.33    4.91
  -7   1  -2    7.58    5.27
   7   1   2    8.03    5.27
  -7  -1  -2    2.97    4.10
  -8  -1  -2   -2.36    1.82
  -8   1  -2    7.10    6.51
  -9  -1  -2  171.49   21.48
  -9   1  -2  155.06   20.54
 -10  -1  -2  442.66   35.48
 -10   1  -2  384.66   33.47
 -11  -1  -2   11.48    6.73
 -11   1  -2   -0.03    4.60
 -12  -1  -2   39.83   12.63
 -12   1  -2   29.91    9.51
 -13   1  -2   60.48   14.90
 -13  -1  -2   37.31   12.66
 -14  -1  -2   27.52   12.03
 -14   1  -2   18.88    9.47
 -15   1  -2   21.00   12.36
 -16   1  -2   79.34   19.11
 -17   1  -2   64.87   19.13
 -19  -2   2   13.42    6.27
 -18  -2   2   18.63    9.49
 -17   2   2   34.07   10.83
 -17  -2   2   27.84   11.99
 -16  -2   2   40.20   11.95
 -16   2   2   68.53   15.02
 -15   2   2   33.91   10.72
 -15  -2   2   38.10   11.15
 -14  -2   2   18.18    8.21
 -14   2   2   24.98    8.73
 -13   2   2   18.71    7.24
 -13  -2   2   15.36    7.19
 -12  -2   2   77.00   14.59
 -12   2   2   49.01   10.94
 -11   2   2   24.67    7.31
 -11  -2   2   21.09    8.56
 -10  -2   2  201.10   21.80
 -10   2   2  204.94   19.99
  -9  -2   2  217.63   21.26
  -9   2   2  267.32   22.00
  -8  -2   2    4.75    3.90
   8  -2  -2    6.85    4.96
  -8   2   2    6.48    4.14
  -7   2   2   94.38   12.20
   7  -2  -2   87.02   13.12
  -7  -2   2   85.80   13.06
   6  -2  -2    5.75    3.91
  -6   2   2    0.12    1.44
  -6  -2   2    2.27    2.29
   5  -2  -2  521.36   27.61
  -5  -2   2  564.79   29.28
  -5   2   2  577.25   27.82
  -4  -2   2    3.71    3.16
   4  -2  -2    4.18    3.46
  -4   2   2    0.49    2.32
   4  -2  -2    2.92    2.85
  -3  -2   2 1448.93   42.19
   3  -2  -2 1428.61   40.03
  -3   2   2 1423.18   41.91
  -2   2   2  232.35   16.35
  -2  -2   2  243.22   16.02
  -1   2   2   40.14    6.80
  -1  -2   2   40.25    6.36
   0   2   2   51.00    7.50
   0  -2   2   57.49    7.26
  -1   2  -2  319.88   18.99
  -1  -2  -2  305.50   11.50
  -1   2  -2  334.20   16.95
   1  -2   2  321.74   16.81
  -2  -2  -2  562.77   17.39
   2  -2   2  574.32   21.68
  -2   2  -2  547.04   25.58
  -2   2  -2  599.44   22.65
   2   2   2  562.25   18.64
  -3   2  -2  123.20   10.19
  -3   2  -2  126.14   12.80
   3   2   2  113.83    9.52
  -3  -2  -2  119.47    9.46
  -4   2  -2  826.63   26.53
   4   2   2  846.82   29.92
  -4   2  -2  791.89   33.80
  -4  -2  -2  860.81   30.24
  -5   2  -2    1.20    1.95
  -5   2  -2    2.30    1.28
   5   2   2    5.39    4.71
  -5  -2  -2    0.28    1.99
   6   2   2   50.70    9.74
  -6   2  -2   46.11    8.95
  -6  -2  -2   49.93    9.66
  -7  -2  -2   66.96   11.91
   7   2   2   64.02   10.99
  -7   2  -2   66.94   11.87
  -8   2  -2  288.73   25.72
  -8  -2  -2  304.32   26.60
  -9  -2  -2   55.81   12.34
  -9   2  -2   38.21   10.72
 -10  -2  -2  162.24   21.96
 -10   2  -2  162.18   22.27
 -11   2  -2   97.81   17.80
 -11  -2  -2  112.24   18.60
 -12  -2  -2   35.83   11.36
 -12   2  -2   23.24    9.92
 -13  -2  -2    4.58    5.91
 -13   2  -2  -10.91    6.60
 -14   2  -2   92.95   20.05
 -15   2  -2   55.10   17.01
 -16   2  -2   31.08   14.56
 -17   2  -2   47.43   15.47
 -18   2  -2   17.69   10.11
 -19  -3   2    8.47    7.45
 -18  -3   2   -4.51    1.48
 -17  -3   2   50.62   14.40
 -16   3   2    3.90    4.57
 -16  -3   2   13.76    9.14
 -15   3   2   61.56   13.41
 -15  -3   2   59.53   14.43
 -14   3   2   46.81   10.59
 -14  -3   2   41.46   11.51
 -13  -3   2   15.80    7.55
 -13   3   2    9.07    4.98
 -12  -3   2   30.11    9.87
 -12   3   2   33.68    9.31
 -11   3   2   91.11   13.78
 -11  -3   2   82.91   14.76
 -10  -3   2  223.56   23.83
 -10   3   2  242.06   21.60
   9  -3  -2   25.25    8.09
  -9   3   2   17.69    5.73
  -9  -3   2   19.22    6.73
  -8   3   2  471.18   28.20
   8  -3  -2  449.64   29.50
  -7   3   2    0.20    0.97
   7  -3  -2    6.46    3.54
  -7  -3   2    7.21    3.21
  -6  -3   2  287.71   22.57
   6  -3  -2  310.67   26.23
  -6   3   2  254.20   19.40
   6  -3  -2  242.31   19.57
   5  -3  -2   94.36   13.04
  -5   3   2   79.53   11.11
  -5  -3   2   91.07   12.20
   5  -3  -2   93.51   11.80
  -4   3   2  854.42   33.69
   4  -3  -2  828.54   35.10
  -4  -3   2  904.19   35.78
   4  -3  -2  920.41   35.72
  -3   3   2  274.90   18.67
   3  -3  -2  275.92   17.97
  -3  -3   2  292.89   19.32
  -2   3   2  707.63   29.25
   2  -3  -2  726.16   24.12
  -2  -3   2  717.57   28.85
  -1   3   2  561.79   25.86
   1  -3  -2  594.28   16.88
  -1  -3   2  572.29   24.55
   0  -3   2 1153.21   32.41
   0   3  -2 1162.22   32.96
   1  -3   2  184.78   12.98
  -1   3  -2  194.65   12.64
  -1   3  -2  180.10   15.65
   2   3   2  985.11   21.60
  -2  -3  -2  984.55   21.17
  -2   3  -2  942.06   36.01
  -2   3  -2 1044.56   27.82
   2  -3   2 1015.19   28.29
   3  -3   2  785.05   23.45
   3   3   2  781.02   23.14
  -3  -3  -2  664.00   23.21
  -3   3  -2  753.41   33.35
  -3   3  -2  795.72   24.09
  -4  -3  -2   30.71    5.79
   4   3   2   26.01    5.22
  -4   3  -2   21.48    3.86
  -4   3  -2   24.58    6.53
  -5   3  -2  485.68   19.35
  -5  -3  -2  486.55   26.86
  -5   3  -2  464.83   28.72
   5   3   2  497.58   24.89
  -6  -3  -2   32.41    7.96
  -6   3  -2   28.10    4.96
  -6   3  -2   28.98    7.31
   6   3   2   30.75    7.78
  -7   3  -2  515.14   32.23
  -7  -3  -2  577.68   33.26
  -8  -3  -2   70.85   12.85
  -8   3  -2   45.19   10.57
  -9   3  -2  558.15   38.47
  -9  -3  -2  580.72   37.50
 -10  -3  -2   39.93   11.14
 -10   3  -2   37.99   11.32
 -11   3  -2  125.85   20.46
 -12   3  -2   13.37    8.59
 -13   3  -2   50.47    9.23
 -13   3  -2   74.16   17.98
 -14   3  -2   19.24   10.63
 -15   3  -2   73.77   21.34
 -16   3  -2   68.82   19.58
 -17   3  -2   12.16    9.19
 -18   3  -2   24.83   11.46
 -20  -4   2   -7.79    6.04
 -19  -4   2    5.16    6.55
 -18  -4   2   10.59    6.30
 -17  -4   2    7.88    6.79
 -16  -4   2  103.53   20.26
 -15   4   2   18.20    6.97
 -15  -4   2   33.09   11.37
 -14   4   2   38.95    9.11
 -14  -4   2   54.59   13.96
 -13   4   2   11.85    5.31
 -13  -4   2   -1.18    4.14
 -12   4   2    1.39    3.07
 -12  -4   2    4.47    4.21
 -11   4   2   83.13   12.89
 -11  -4   2   78.13   15.31
 -10   4   2    3.70    2.94
 -10  -4   2   15.13    7.91
  -9  -4   2  668.36   40.78
  -9   4   2  748.91   36.66
   9  -4  -2  630.48   35.69
   8  -4  -2    7.70    4.83
  -8   4   2    4.31    5.04
  -8   4   2    9.05    4.27
  -8  -4   2    4.00    4.82
  -7   4   2  418.82   26.09
   7  -4  -2  343.41   23.87
  -7  -4   2  345.51   26.86
  -7   4   2  410.92   27.77
  -6   4   2   30.00    7.12
  -6   4   2   35.32    8.36
  -6  -4   2   25.82    7.39
   6  -4  -2   25.49    6.88
   6  -4  -2   30.88    9.34
   5  -4  -2  313.96   23.89
  -5   4   2  310.97   21.03
   5  -4  -2  284.16   20.63
  -5   4   2  236.61   18.32
  -5  -4   2  323.85   24.08
  -4  -4   2   92.00   12.29
  -4   4   2   96.14   11.34
  -4   4   2   76.78    9.46
   4  -4  -2   94.64   11.85
   4  -4  -2   62.99    9.36
  -3  -4   2  684.24   30.61
  -3   4   2  644.63   28.86
   3  -4  -2  697.80   32.09
   3  -4  -2  602.31   25.34
   2  -4  -2  699.97   22.48
  -2  -4   2  724.49   29.95
  -2   4   2  674.71   29.36
   1  -4  -2  373.95   12.14
   1   4  -2  407.04   21.81
  -1  -4   2  398.27   20.93
   0   4  -2  417.83   20.47
   0  -4   2  399.48   19.83
   1  -4   2  785.79   26.31
  -1   4  -2  729.23   33.24
  -1   4  -2  823.45   26.01
  -2   4  -2  388.31   16.61
   2  -4   2  356.50   17.43
  -2   4  -2  348.67   23.07
   2   4   2  319.44   10.57
   3   4   2  385.32   15.11
  -3   4  -2  413.73   15.68
  -3   4  -2  413.63   25.83
   3  -4   2  420.14   16.52
  -4   4  -2  554.61   30.77
  -4   4  -2  483.70   16.54
   4   4   2  492.47   20.60
  -5   4  -2    7.21    2.19
   5   4   2   12.49    4.48
  -5   4  -2   13.03    5.71
  -6   4  -2  256.90   12.65
   6   4   2  252.45   19.09
  -6   4  -2  322.92   24.97
   7   4   2    3.58    2.90
  -7   4  -2    0.89    3.08
  -7   4  -2    3.08    1.35
  -8   4  -2  664.36   39.44
  -8   4  -2  531.13   20.72
  -9   4  -2    3.48    6.00
 -10   4  -2  169.81   22.56
 -11   4  -2   11.90    7.65
 -12   4  -2   11.88    8.38
 -12   4  -2    4.12    2.88
 -13   4  -2   25.68   10.83
 -14   4  -2   40.67   14.75
 -15   4  -2  107.77   24.96
 -16   4  -2   46.29   17.24
 -17   4  -2   20.65    9.69
 -19  -5   2   35.27   14.78
 -18  -5   2    9.64    6.77
 -17  -5   2   36.86   12.78
 -16  -5   2   21.34    9.75
 -15   5   2   61.59   13.26
 -15  -5   2  102.24   20.39
 -14   5   2    6.89    4.29
 -14  -5   2   14.54    8.07
 -13   5   2   28.64    8.83
 -13  -5   2   52.72   13.51
 -12  -5   2   15.63    6.99
 -12   5   2    3.59    4.59
 -11  -5   2   10.53    6.74
 -11   5   2   17.26    6.71
 -10   5   2  147.21   17.24
 -10   5   2  162.61   21.01
 -10  -5   2  115.79   18.01
  -9  -5   2   51.26   11.73
  -9   5   2   66.84   13.32
  -9   5   2   43.16    8.93
   9  -5  -2   36.65    8.13
  -8   5   2  381.40   25.49
   8  -5  -2  322.27   23.63
  -8   5   2  373.93   28.93
  -8  -5   2  327.64   28.27
  -7  -5   2  150.27   18.27
  -7   5   2  195.03   19.53
  -7   5   2  176.03   16.98
   7  -5  -2  148.05   15.66
  -6   5   2  175.94   16.15
   6  -5  -2  178.25   19.60
  -6   5   2  198.67   19.14
  -6  -5   2  169.12   18.38
   6  -5  -2  171.49   16.38
  -5  -5   2   52.43   11.14
  -5   5   2   36.16    7.59
   5  -5  -2   35.80    7.57
  -5   5   2   33.04    6.78
   5  -5  -2   42.03    9.21
   4  -5  -2   51.65    8.64
  -4   5   2   36.21    7.13
   4  -5  -2   50.07    8.75
  -4  -5   2   48.47    9.35
  -4   5   2   38.75    7.27
  -3  -5   2  168.84   16.52
   3  -5  -2  163.43   13.17
  -3   5   2  148.70   14.13
  -3   5   2  113.68   10.84
   3  -5  -2  161.15   16.00
   2  -5  -2  245.57   19.20
  -2   5   2  214.06   12.65
  -2   5   2  234.31   17.75
  -2  -5   2  265.59   18.96
   2  -5  -2  259.33   13.88
  -1  -5   2  373.48   20.83
  -1   5   2  330.70   11.91
   1  -5  -2  336.43   12.58
   0  -5   2  752.93   28.05
  -1   5  -2   55.15    6.96
  -1   5  -2   43.58    8.08
   1  -5   2   48.07    6.64
   2  -5   2  352.80   16.75
  -2   5  -2  354.47   16.01
  -2   5  -2  338.69   24.37
   3  -5   2    7.64    2.18
  -3   5  -2    8.05    5.01
  -3   5  -2    7.25    2.45
   3   5   2   11.13    2.80
  -4   5  -2    1.01    0.90
  -4   5  -2    6.26    4.29
   4   5   2    4.91    3.25
  -5   5  -2  256.81   22.33
   5   5   2  202.12   15.04
  -6   5  -2   33.05    9.29
   6   5   2   24.46    6.45
  -6   5  -2    7.39    1.78
  -7   5  -2  474.49   32.47
   7   5   2  473.60   28.62
  -8   5  -2    2.00    1.31
  -8   5  -2   10.24    6.77
  -9   5  -2  142.49    9.69
  -9   5  -2  140.85    8.89
 -10   5  -2    3.87    4.34
 -10   5  -2    3.43    1.96
 -10   5  -2    2.65    1.87
 -11   5  -2   11.34    3.14
 -11   5  -2    1.88    5.23
 -12   5  -2   16.03    8.90
 -13   5  -2   17.35   11.43
 -14   5  -2   85.95   20.16
 -15   5  -2   25.30   13.28
 -16   5  -2   68.39   19.51
 -17   5  -2   15.18    9.48
 -19  -6   2    2.28    5.25
 -18  -6   2   15.05    9.43
 -17  -6   2    8.88    8.79
 -16  -6   2   67.87   17.46
 -15  -6   2   40.98   12.93
 -14   6   2  104.07   16.55
 -14  -6   2  127.71   22.44
 -13   6   2   11.64    6.45
 -13  -6   2   16.96    8.44
 -12   6   2   45.73   10.07
 -12  -6   2   36.37   11.15
 -12   6   2   64.45   14.84
 -11  -6   2   14.65    6.92
 -11   6   2    9.76    5.74
 -11   6   2   10.94    6.75
  10  -6  -2   22.08    6.81
 -10  -6   2   35.04   10.92
 -10   6   2   25.06    6.82
 -10   6   2   18.63    7.74
   9  -6  -2   79.74   12.36
  -9  -6   2   95.52   16.49
  -9   6   2  126.89   18.21
  -9   6   2  100.66   13.02
  -8   6   2  202.99   22.11
   8  -6  -2  161.50   16.79
  -8  -6   2  194.48   22.48
  -8   6   2  191.96   17.59
  -7  -6   2  152.35   19.02
   7  -6  -2  172.06   16.87
  -7   6   2  178.51   16.84
  -7   6   2  202.01   20.75
  -6   6   2  238.82   19.24
  -6   6   2  233.56   21.51
  -6  -6   2  181.17   19.72
   6  -6  -2  227.13   19.42
   6  -6  -2  256.73   24.12
  -5   6   2   20.60    6.06
  -5  -6   2   28.73    7.05
   5  -6  -2   23.31    6.61
  -5   6   2   23.47    6.81
   5  -6  -2   16.68    6.07
  -4  -6   2   45.44    9.88
  -4   6   2   44.45    8.40
   4  -6  -2   48.48    9.36
   4  -6  -2   49.51    8.80
  -4   6   2   44.07    7.71
  -3  -6   2   10.52    5.49
  -3   6   2    1.93    0.95
   3  -6  -2    6.47    3.61
   3  -6  -2    9.82    4.86
  -2  -6   2  109.90   13.38
  -2   6   2   73.66    7.78
   2  -6  -2   99.29    9.35
   2  -6  -2   99.05   12.97
   1  -6  -2  348.05   14.73
   1  -6  -2  385.59   25.59
  -1   6   2  314.22   12.58
   0  -6   2  155.52   13.35
   1  -6   2  384.67   19.40
  -1   6  -2  371.94   26.01
   2   6   2   16.75    2.62
   2  -6   2   17.65    3.98
  -2   6  -2   16.15    5.96
   3  -6   2    2.04    1.68
  -3   6  -2    4.07    4.21
   3   6   2    3.77    1.89
   4  -6   2    2.92    1.24
   4   6   2    7.74    2.97
  -4   6  -2    9.18    4.54
   5   6   2   40.33    6.81
  -5   6  -2   43.89   10.31
   6   6   2  236.40   18.32
  -6   6  -2  232.72   22.70
  -7   6  -2   37.93    9.95
   7   6   2   49.22    9.52
  -8   6  -2  146.19   19.57
  -9   6  -2   11.04    7.42
 -10   6  -2   44.98   12.55
 -11   6  -2    8.12    6.58
 -12   6  -2    5.47    9.46
 -13   6  -2  104.67   22.10
 -14   6  -2    9.40   11.29
 -15   6  -2   54.24   17.38
 -16   6  -2   20.32   12.27
 -17   6  -2   25.12   15.68
 -18  -7   2   19.38    9.88
 -17  -7   2   20.45    9.55
 -16  -7   2   11.83    7.89
 -15  -7   2   67.83   18.14
 -14  -7   2   12.40    9.37
 -13  -7   2  101.81   19.46
 -13   7   2   85.29   13.89
 -13   7   2  119.37   21.41
 -12  -7   2    5.73    5.76
 -12   7   2   -0.29    2.42
 -11  -7   2   10.27    5.96
 -11   7   2   20.26    7.67
 -11   7   2   13.06    5.20
 -10  -7   2   13.95    7.75
 -10   7   2   18.22    8.59
 -10   7   2   11.79    5.10
  10  -7  -2   10.23    5.29
  -9   7   2  102.09   17.18
  -9   7   2   91.64   12.93
   9  -7  -2   57.04   10.11
  -9  -7   2   86.63   16.49
  -8  -7   2   56.15   12.68
  -8   7   2   42.02    8.35
  -8   7   2   63.07   12.21
   8  -7  -2   50.48    9.36
   7  -7  -2  173.11   16.91
  -7   7   2  193.92   20.89
  -7  -7   2  169.64   20.83
  -7   7   2  173.81   16.44
  -6   7   2   30.61    7.69
  -6   7   2   32.09    7.32
   6  -7  -2   35.25    8.45
  -6  -7   2   31.51    8.34
   5  -7  -2    9.43    6.38
  -5  -7   2    4.17    1.18
   5  -7  -2    9.33    4.76
  -5   7   2    1.11    2.71
  -5   7   2    7.25    3.58
   4  -7  -2    6.47    4.53
  -4  -7   2    7.40    4.45
   4  -7  -2    6.04    3.85
  -3  -7   2    0.17    1.97
   3  -7  -2    8.60    4.75
   3  -7  -2    8.61    4.64
  -3   7   2    5.99    3.65
  -2  -7   2   91.71   12.25
  -2   7   2   81.22    8.20
   2  -7  -2   93.61    9.78
   2  -7  -2   86.42   12.77
  -1  -7   2   12.03    5.46
   1  -7  -2    4.96    4.68
  -1   7   2    9.71    2.84
   0   7   2   63.29    4.90
   0  -7   2   69.49    9.60
   1   7   2   22.89    3.09
  -1   7  -2   43.98    9.72
   1  -7   2   37.03    6.11
  -2   7  -2    2.03    0.22
   2  -7   2    5.49    2.94
   3   7   2    8.26    2.73
   3  -7   2    3.93    1.75
  -3   7  -2    6.76    4.52
  -4   7  -2   -1.44    2.80
   4   7   2    3.87    2.53
   4  -7   2    1.87    1.11
  -5   7  -2   62.18   12.09
   5   7   2   46.28    7.75
   6   7   2   63.89    9.52
  -6   7  -2   72.00   13.23
   7   7   2  107.24   13.94
  -7   7  -2   98.24   16.25
  -8   7  -2   72.04   14.73
  -9   7  -2   22.73    8.77
 -10   7  -2    5.73    5.55
 -11   7  -2    9.83    5.79
 -12   7  -2   62.38   16.04
 -13   7  -2   15.42    9.62
 -14   7  -2  109.12   22.76
 -15   7  -2    7.35    9.69
 -16   7  -2   35.43   13.87
 -17  -8   2   -5.06    5.84
 -16  -8   2    8.75    6.32
 -15  -8   2   12.87    9.40
 -14  -8   2   83.47   19.73
 -14   8   2  101.76   20.41
 -13  -8   2   17.22   10.44
 -13   8   2   22.44    9.74
 -12  -8   2  105.50   19.87
 -12   8   2  146.24   22.30
 -12   8   2  109.66   14.84
 -11   8   2   36.70   12.69
 -11  -8   2   32.55   11.49
 -11   8   2   19.91    6.78
 -10  -8   2   46.42   12.76
 -10   8   2   61.22   13.73
 -10   8   2   53.76    9.72
  10  -8  -2   32.73    7.93
  -9   8   2    4.27    4.53
  -9   8   2    5.37    3.33
   9  -8  -2    1.81    0.66
  -9  -8   2    5.78    5.95
  -8   8   2  143.66   15.37
  -8  -8   2  136.06   19.69
   8  -8  -2  131.80   15.26
  -8   8   2  153.11   20.33
  -7   8   2  205.26   17.98
   7  -8  -2  197.57   18.35
  -7   8   2  208.52   22.21
  -7  -8   2  212.09   23.49
  -6  -8   2    6.38    3.79
  -6   8   2    6.33    5.17
   6  -8  -2    6.12    2.84
  -5   8   2  203.77   17.95
   5  -8  -2  173.41   18.43
   5  -8  -2  207.24   21.23
  -5  -8   2  168.36   19.78
   4  -8  -2    4.21    3.00
   4  -8  -2    6.24    4.63
  -4  -8   2   -0.92    0.75
  -4   8   2    1.62    3.50
   3  -8  -2   42.75    8.17
   3  -8  -2   31.41    8.72
  -3  -8   2   33.37    9.11
  -3   8   2   33.36    6.47
   2  -8  -2   30.67    8.10
  -2  -8   2   36.07    7.94
   2  -8  -2   38.02    7.16
  -2   8   2   40.85    6.18
  -1   8   2  335.70   14.75
   1  -8  -2  342.01   26.61
  -1  -8   2  412.26   25.25
   0   8   2   93.42    6.86
   0  -8   2  109.86   12.52
  -1   8  -2   47.93   10.15
   1   8   2   39.46    4.77
   1  -8   2   59.88    8.28
  -2   8  -2   31.89    8.64
   2  -8   2   35.20    6.03
   3  -8   2   34.22    5.20
  -3   8  -2   31.70    8.87
   4   8   2   79.64    8.79
  -4   8  -2   85.93   13.80
   4  -8   2   58.82    5.60
   5   8   2   79.19    9.93
  -5   8  -2   79.23   14.31
  -6   8  -2  344.64   29.21
   6   8   2  288.78   21.12
  -7   8  -2   21.83    8.76
   7   8   2   18.50    6.17
  -8   8  -2   45.95   11.18
  -9   8  -2   12.32    7.42
 -10   8  -2   35.18   12.21
 -11   8  -2   45.47   12.96
 -12   8  -2   72.65   17.59
 -13   8  -2   84.79   20.89
 -14   8  -2   17.98   10.33
 -15   8  -2   12.58    8.12
 -16   8  -2    2.67    5.80
 -17  -9   2    9.04    6.93
 -16  -9   2    4.25    4.80
 -15  -9   2   10.76    7.12
 -15   9   2   20.33   10.46
 -14  -9   2    1.70    4.95
 -14   9   2   17.66   10.97
 -13   9   2  166.03   25.61
 -13  -9   2  129.99   23.36
 -12  -9   2  174.61   25.66
 -12   9   2  159.09   24.32
 -11  -9   2   30.46   10.87
 -11   9   2   44.26   13.99
 -11   9   2   26.88    7.68
 -10  -9   2   24.28    9.59
 -10   9   2   18.88    5.86
 -10   9   2   39.48   12.07
  -9   9   2   41.25    8.39
  -9   9   2   57.89   13.68
  -9  -9   2   31.60    9.82
   9  -9  -2   30.79    8.12
  -8  -9   2   88.62   16.82
  -8   9   2   60.62   13.92
   8  -9  -2   61.18   10.51
   7  -9  -2   12.18    4.31
  -7   9   2    6.97    5.12
  -7  -9   2   17.43    8.49
  -6  -9   2  493.13   35.79
  -6   9   2  556.39   33.05
   6  -9  -2  527.80   31.93
  -5   9   2  143.45   15.71
  -5  -9   2   96.81   15.37
   5  -9  -2  139.59   16.98
   5  -9  -2  161.22   19.35
  -4  -9   2  287.84   25.71
  -4   9   2  283.77   20.39
   4  -9  -2  300.92   24.82
   4  -9  -2  322.03   24.87
   3  -9  -2    7.45    4.13
   3  -9  -2    6.36    4.16
  -3   9   2   11.85    4.65
  -3  -9   2    4.21    4.68
   2  -9  -2  381.29   28.68
  -2  -9   2  418.92   28.30
  -2   9   2  361.98   18.58
  -1   9   2   28.45    4.71
  -1  -9   2   29.79    7.20
   0  -9   2  271.41   20.24
   0   9   2  240.29   12.59
   1   9   2  650.57   21.28
   1  -9   2  743.57   31.50
  -1   9  -2  782.81   43.32
   2  -9   2    6.52    3.40
  -2   9  -2    7.53    6.11
  -3   9  -2  210.12   22.63
   3  -9   2  181.59   12.52
  -4   9  -2  245.99   24.63
   4   9   2  248.20   15.32
   5   9   2  380.09   21.93
  -5   9  -2  387.17   31.52
  -6   9  -2   59.28   12.84
   6   9   2   56.01    9.74
   7   9   2  123.05   15.94
  -7   9  -2  156.59   20.89
  -8   9  -2   44.60   12.33
  -9   9  -2   16.66    6.61
 -10   9  -2   12.08    8.03
 -11   9  -2  247.56   29.79
 -12   9  -2   68.96   17.01
 -13   9  -2   58.60   18.15
 -14   9  -2   21.66   11.22
 -15   9  -2    0.49    4.70
 -16   9  -2   12.60    8.87
 -16  10   2   13.68   10.41
 -16 -10   2   10.92    7.51
 -15  10   2    8.29    6.67
 -15 -10   2   12.18    7.52
 -14 -10   2   40.83   13.57
 -14  10   2   52.82   14.94
 -13 -10   2  120.44   22.65
 -13  10   2  131.29   22.54
 -12 -10   2   76.87   18.17
 -12  10   2   98.05   20.40
 -11 -10   2  127.84   22.41
 -11  10   2  178.42   25.39
 -10 -10   2    9.18    4.38
 -10  10   2    6.07    7.74
  -9  10   2    7.08    2.70
   9 -10  -2    6.55    3.29
  -9 -10   2   15.84    9.13
  -8 -10   2   22.84    9.41
  -8  10   2    5.28    6.30
   8 -10  -2   11.87    4.25
   7 -10  -2  234.88   21.39
  -7 -10   2  243.47   27.58
  -7  10   2  275.34   25.82
   6 -10  -2  144.89   17.51
  -6  10   2  160.99   18.08
   5 -10  -2  500.46   32.49
  -5  10   2  505.65   29.70
   4 -10  -2   99.05   14.54
  -4  10   2   95.62   12.67
   4 -10  -2   94.02   14.55
  -3 -10   2  373.88   29.39
  -3  10   2  354.50   21.21
   3 -10  -2  386.19   27.29
  -2  10   2   27.65    5.46
  -2 -10   2   28.42    8.41
  -1  10   2  434.69   19.84
  -1 -10   2  501.54   30.57
   0 -10   2  276.28   21.37
   0  10   2  245.08   14.02
   1  10   2    3.70    1.06
  -1  10  -2    5.56    4.28
   1 -10   2    4.86    4.30
   2 -10   2  549.07   25.94
  -2  10  -2  587.09   38.88
   3 -10   2   63.64    7.90
  -3  10  -2   84.39   15.33
  -4  10  -2  303.04   28.49
   4 -10   2  217.00   12.64
   5  10   2  404.64   22.63
  -5  10  -2  400.58   32.62
  -6  10  -2  395.82   33.29
   6  10   2  338.52   23.35
  -7  10  -2    8.52    6.31
   7  10   2    3.53    2.58
  -8  10  -2   46.57   12.51
  -9  10  -2   11.66    5.05
 -10  10  -2   99.34   18.85
 -11  10  -2   10.44    7.58
 -12  10  -2  231.96   32.23
 -13  10  -2   44.26   15.65
 -14  10  -2   17.18   11.32
 -15  10  -2    5.88    6.03
 -16 -11   2   -3.56    6.20
 -16  11   2   11.55    9.94
 -15 -11   2    6.25    6.85
 -15  11   2   10.78    6.37
 -14 -11   2   21.85   10.76
 -14  11   2   14.37    9.63
 -13 -11   2  109.21   22.11
 -13  11   2  126.52   22.67
 -12  11   2  167.71   26.55
 -12 -11   2  155.58   26.03
 -11 -11   2   63.29   16.53
 -11  11   2   60.82   15.78
 -10  11   2    5.27    2.01
 -10 -11   2   18.17    9.44
  -9 -11   2   27.01   10.39
  -9  11   2   30.70   11.65
  -8 -11   2   40.59   12.51
   8 -11  -2   32.40    7.79
  -8  11   2   39.50   11.29
  -7  11   2    9.14    6.25
   7 -11  -2    5.68    4.33
  -6  11   2  589.93   35.60
   6 -11  -2  556.44   35.93
  -5  11   2  106.80   14.45
  -4  11   2  305.22   21.68
   4 -11  -2  303.17   26.89
  -3  11   2   16.15    4.80
  -2 -11   2  402.88   30.13
  -2  11   2  402.70   21.85
  -1 -11   2   31.10    9.37
  -1  11   2   23.20    4.85
   0  11   2  254.96   15.60
   0 -11   2  276.70   22.82
   0  11  -2  281.27   28.18
   1 -11   2  470.99   27.96
   1  11   2  466.84   21.14
  -1  11  -2  497.83   37.44
   2  11   2   14.05    3.88
  -2  11  -2   17.34    5.97
   2 -11   2   20.74    5.61
   3 -11   2  206.60   15.28
  -3  11  -2  236.42   25.74
   4 -11   2  231.27   13.71
  -4  11  -2  328.67   30.43
   5  11   2  448.80   24.16
  -5  11  -2  517.91   38.56
   6  11   2  104.91   12.95
  -6  11  -2  115.08   18.32
  -7  11  -2  194.04   24.83
   7  11   2  147.09   17.70
  -8  11  -2   29.04   10.45
  -9  11  -2   18.20    8.78
 -10  11  -2   31.56   11.44
 -11  11  -2  253.49   32.88
 -12  11  -2   56.13   16.40
 -13  11  -2  106.19   23.26
 -14  11  -2    8.64    9.07
 -15  11  -2   14.67   10.42
 -16  12   2   13.39   10.05
 -15 -12   2    8.70    6.57
 -15  12   2   12.52    7.33
 -14 -12   2   48.73   15.67
 -14  12   2   61.78   18.46
 -13 -12   2   26.02   11.83
 -13  12   2   27.24   12.07
 -12  12   2   68.08   16.84
 -12 -12   2   52.84   16.65
 -11 -12   2   70.08   17.94
 -11  12   2   53.67   15.64
 -10 -12   2   19.96    9.03
 -10  12   2    5.33    4.66
  -9 -12   2   -0.17    5.69
  -9  12   2    8.62    7.89
  -8 -12   2   59.51   15.93
  -8  12   2   52.27   12.11
  -7  12   2  117.06   17.29
  -6  12   2   23.57    6.96
  -5  12   2  156.35   18.04
  -4  12   2   31.84    7.65
  -3  12   2   69.83   10.25
  -2  12   2   40.55    7.52
  -1  12   2  195.56   15.16
  -1 -12   2  199.75   21.05
   0  12  -2  117.40   18.71
   0  12   2   89.12    9.80
   0 -12   2  106.89   14.88
   1 -12   2    1.25    2.03
   1  12   2    4.71    3.63
   2 -12   2  133.57   14.63
  -2  12  -2  160.24   21.34
   2  12   2  136.11   12.83
  -3  12  -2   15.21    5.79
   3 -12   2    9.36    3.54
  -4  12  -2   58.61   13.74
   4 -12   2   48.27    6.91
   5 -12   2   39.34    3.88
   5 -12   2   44.08    4.44
  -6  12  -2  161.59   22.65
  -7  12  -2   33.98    9.65
  -8  12  -2    6.90    7.71
  -9  12  -2   22.58   10.29
 -10  12  -2   42.19   13.14
 -11  12  -2   25.48   12.45
 -12  12  -2   61.81   17.60
 -13  12  -2   59.30   18.17
 -14  12  -2    2.10    9.90
 -15  13   2   19.73   11.35
 -14 -13   2   20.20   11.62
 -14  13   2   26.98   10.61
 -13  13   2   93.93   21.34
 -13 -13   2   84.99   20.66
 -12  13   2   15.53   11.23
 -12 -13   2   12.74    8.22
 -11 -13   2   20.54   10.13
 -11  13   2   21.59   10.98
 -10  13   2   -1.43    4.12
 -10 -13   2    4.64    6.96
  -9 -13   2   68.83   16.86
  -9  13   2   44.16   12.47
  -8 -13   2    4.59    5.89
  -8  13   2    8.94    5.76
  -7  13   2   68.00   13.39
  -6  13   2   83.92   14.75
  -5  13   2   -0.85    2.41
  -4  13   2    8.55    4.23
  -3  13   2   34.87    8.31
  -2  13   2   62.98    9.46
  -1 -13   2    2.95    3.94
  -1  13   2    3.54    2.70
   0  13   2   47.70    7.84
   0 -13   2   46.35   11.56
   0  13  -2   64.32   14.61
   1 -13   2   63.88   11.28
   1  13   2   71.86    9.66
  -1  13  -2   96.81   17.20
   2  13   2   10.10    4.84
   2 -13   2   11.54    5.41
  -2  13  -2   18.61    6.96
   3  13   2    6.10    4.78
  -3  13  -2    4.71    6.01
   3 -13   2    0.49    1.52
  -4  13  -2   24.93   10.79
   4 -13   2   13.10    3.95
  -5  13  -2   52.85   14.38
  -6  13  -2   14.81    8.53
  -7  13  -2   32.68   10.80
  -8  13  -2   41.57   13.15
  -9  13  -2   11.47    5.46
 -10  13  -2   11.45    8.04
 -11  13  -2   37.60   13.67
 -12  13  -2   45.83   14.54
 -13  13  -2    4.80    7.37
 -15  14   2   37.82   15.79
 -14  14   2   46.33   15.69
 -13  14   2   19.61   11.51
 -13 -14   2   10.01    7.74
 -12 -14   2   46.40   16.62
 -12  14   2   50.71   16.74
 -11 -14   2   11.36    8.20
 -11  14   2    4.39    1.58
 -10 -14   2   15.97    9.44
 -10  14   2   17.99   10.09
  -9 -14   2    4.70    1.48
  -9  14   2   10.67    8.24
  -8 -14   2  111.32   22.03
  -8  14   2  111.07   18.84
  -7  14   2   76.54   15.53
  -6  14   2   56.87   12.72
  -5  14   2   17.55    6.83
  -4  14   2   18.77    7.32
  -3  14   2    6.44    4.52
  -2 -14   2    6.88    6.30
  -2  14   2    2.28    2.71
  -1  14   2  121.87   13.23
  -1 -14   2  118.95   18.06
   1  14  -2  149.82   23.56
   0  14  -2   61.26   14.87
   0  14   2   45.47    8.11
   0 -14   2   43.96   10.93
   1 -14   2   49.92   10.55
  -1  14  -2   69.61   15.18
   1  14   2   63.98    9.57
   2  14   2    2.10    3.27
   2 -14   2    3.90    4.15
  -2  14  -2    5.46    6.69
   3  14   2    8.52    4.59
  -3  14  -2   15.22    9.46
   3 -14   2    4.20    3.36
   4 -14   2   -0.97    0.64
  -4  14  -2    0.21    3.20
  -5  14  -2    2.62    4.78
  -6  14  -2  125.25   21.33
  -7  14  -2   29.88   11.52
  -8  14  -2   32.50   10.82
  -9  14  -2   14.18    7.90
 -10  14  -2   19.13   11.33
 -11  14  -2   15.13    9.65
 -12  14  -2   -0.70    5.18
 -13  14  -2   54.32   18.38
 -14  15   2    8.83   10.07
 -13  15   2   27.14   13.62
 -13 -15   2   21.24   13.05
 -12  15   2   25.76   12.04
 -12 -15   2    8.60    7.80
 -11 -15   2    8.54    7.40
 -11  15   2   -7.60    3.00
 -10 -15   2   50.99   16.60
 -10  15   2   27.59   11.83
  -9  15   2   22.39    9.72
  -9 -15   2   20.59   10.83
  -8 -15   2   52.69   15.65
  -8  15   2   44.43   14.62
  -7  15   2   44.34   12.59
  -7 -15   2   45.37   15.05
  -6  15   2   35.82   11.08
  -5  15   2   10.68    7.08
  -4  15   2   13.23    6.19
  -3  15   2   15.49    6.78
  -2  15   2   55.85   10.36
  -2 -15   2   51.71   12.86
   1  15  -2   46.23   12.47
  -1 -15   2   38.54   11.19
  -1  15   2   38.39    8.10
   0  15   2  117.25   13.41
   0 -15   2  103.23   16.29
   0  15  -2  125.00   21.47
   1 -15   2   25.54    7.63
  -1  15  -2   46.19   12.35
   1  15   2   33.62    7.43
   2  15   2   24.94    6.89
  -2  15  -2   33.96   11.28
   2 -15   2   22.07    7.58
  -3  15  -2   16.19    8.96
   3 -15   2    1.18    2.47
  -4  15  -2    9.46    7.12
  -5  15  -2   70.00   15.98
  -6  15  -2   20.55    9.20
  -7  15  -2  125.06   21.78
  -8  15  -2   22.64   11.75
  -9  15  -2   36.22   12.91
 -10  15  -2   25.19   11.40
 -11  15  -2   12.14    8.76
 -12  15  -2   35.54   13.68
 -14  16   2   25.61   10.38
 -13  16   2   10.47   10.64
 -12 -16   2    8.11    9.33
 -12  16   2    9.56    9.04
 -11 -16   2   37.78   17.00
 -11  16   2   24.53   10.20
 -10 -16   2   14.55   12.37
 -10  16   2    9.58    6.82
  -9  16   2   76.11   17.52
  -9 -16   2   99.98   22.12
  -8 -16   2   29.75   11.76
  -8  16   2   28.47   10.14
  -7 -16   2  109.43   23.56
  -7  16   2  134.70   20.73
  -6 -16   2   12.59    8.99
  -6  16   2   13.31    8.27
  -5 -16   2   46.47   13.78
  -5  16   2   53.16   12.65
  -4 -16   2    8.38    6.40
  -4  16   2    7.50    6.08
  -3 -16   2   58.26   14.59
  -3  16   2   53.85   11.00
   2  16  -2  102.68   20.13
  -2 -16   2   84.96   17.49
  -2  16   2   84.66   13.60
  -1  16   2  175.66   17.84
  -1 -16   2  146.82   21.71
   1  16  -2  199.43   29.34
   0 -16   2   94.38   16.10
   0  16  -2  135.13   23.85
   1 -16   2  147.06   19.94
  -1  16  -2  201.75   27.55
  -2  16  -2   53.20   14.97
   2 -16   2   26.90    7.68
  -3  16  -2   51.46   12.93
  -4  16  -2   83.49   17.40
  -5  16  -2    1.35    2.24
  -6  16  -2  180.80   26.11
  -7  16  -2    1.23    1.30
  -8  16  -2  154.57   24.93
  -9  16  -2   26.17   12.44
 -10  16  -2   45.91   14.73
 -11  16  -2   18.92    9.47
 -13  17   2   24.76   11.58
 -12  17   2   -0.87    3.45
 -11  17   2   -1.98    6.51
 -11 -17   2   13.77   10.77
 -10 -17   2   75.08   20.53
 -10  17   2   60.29   17.68
  -9 -17   2   17.74   10.93
  -9  17   2    7.27    8.92
  -8  17   2   97.82   18.65
  -8 -17   2  107.84   23.49
  -7 -17   2   16.71   11.28
  -7  17   2   14.56    8.62
  -6 -17   2   98.47   20.56
  -5 -17   2   15.31    9.22
  -4 -17   2   75.45   16.99
  -3 -17   2   40.12   13.75
  -2 -17   2  101.85   19.60
   2  17  -2  134.99   24.58
  -1 -17   2   90.55   17.48
   1  17  -2  134.65   24.00
   0 -17   2  158.06   21.96
   0  17  -2  199.08   28.24
   1 -17   2   55.51   12.42
  -1  17  -2   74.96   18.08
  -2  17  -2  127.87   22.39
  -3  17  -2   94.54   18.91
  -4  17  -2   26.14   11.56
  -5  17  -2  144.12   23.14
  -6  17  -2    9.32    7.50
  -7  17  -2  139.13   24.08
  -8  17  -2   11.48   10.18
  -9  17  -2  110.37   24.07
 -10  17  -2    9.47   10.39
 -10 -18   2   18.92   10.16
  -9 -18   2   64.79   19.93
  -8 -18   2   14.12    9.67
  -7 -18   2   32.66   13.25
  -6 -18   2   -3.81    2.06
  -5 -18   2   26.66   11.84
  -4 -18   2   15.46   10.16
  -3 -18   2   98.59   21.17
   3  18  -2  136.73   26.86
  -2 -18   2   42.11   13.97
   2  18  -2   66.22   18.69
  -1 -18   2   36.60   12.25
   1  18  -2   52.19   16.20
   0 -18   2   18.81    9.63
   0  18  -2   33.66   14.11
  -1  18  -2   63.91   17.53
  -2  18  -2   76.20   17.67
  -3  18  -2   40.46   14.34
  -4  18  -2  104.46   20.36
  -5  18  -2    9.19    9.13
  -6  18  -2   48.72   14.50
  -7  18  -2    7.18    6.64
  -8  18  -2   62.69   17.15
  -9  18  -2    9.47    7.40
  -9 -19   2    7.93    9.11
  -8 -19   2   13.63    9.96
  -7 -19   2   -0.83    7.81
  -6 -19   2    9.60    8.04
  -5 -19   2    8.76    7.77
  -4 -19   2   55.03   17.42
   4  19  -2  107.01   24.55
  -3 -19   2   11.93    9.31
   3  19  -2   -8.33    7.67
  -2 -19   2   27.98   11.65
   2  19  -2   37.38   13.27
   1  19  -2   16.63   10.35
   0  19  -2   22.83   11.95
  -1  19  -2   13.08    9.14
  -2  19  -2   45.16   13.92
  -3  19  -2   86.92   19.03
  -4  19  -2   14.29   10.27
  -5  19  -2   38.93   13.59
  -6  19  -2   17.41   10.86
  -7  19  -2   20.65   10.96
  -8  19  -2    7.89    8.88
  -8 -20   2   11.55   10.32
  -7 -20   2    8.98    8.46
  -6 -20   2    1.60    4.14
  -5 -20   2   12.63    8.95
   5  20  -2   30.11   16.16
  -4 -20   2    0.46    1.13
   4  20  -2   12.37   10.54
  -3 -20   2   26.39   12.20
   3  20  -2   62.11   18.86
   2  20  -2   13.93    9.61
   1  20  -2   16.64   11.03
   0  20  -2   22.52   13.71
  -1  20  -2    5.20    8.55
  -2  20  -2   24.54   11.49
  -3  20  -2   12.52    9.94
  -4  20  -2   37.94   13.33
  -5  20  -2   12.65   10.00
  -6  20  -2   -0.07    2.66
  -7  20  -2    1.82    5.11
  -7 -21   2    3.89    5.41
  -6 -21   2   -3.96    7.35
  -5 -21   2   -0.75    5.12
  -4 -21   2   52.92   16.49
   3  21  -2    5.30   11.48
   2  21  -2    0.67    5.05
   1  21  -2    5.62    6.43
   0  21  -2    5.40   16.14
  -1  21  -2   11.87   11.82
  -2  21  -2   16.88   11.10
  -3  21  -2   67.43   18.17
  -4  21  -2    7.20    7.81
  -5  21  -2   12.91   11.22
  -6  21  -2   12.84   11.04
  -6 -22   2   -4.51    4.64
  -1  22  -2   21.47    9.77
  -2  22  -2   53.70   15.80
  -3  22  -2   48.78   16.20
  -4  22  -2   72.69   19.03
 -18   0   3    3.50    4.20
 -17   0   3   11.27    8.40
 -16   0   3    4.96    7.14
 -15   0   3   -5.81    4.34
 -14   0   3    3.14    2.19
 -13   0   3    4.47    4.11
 -12   0   3    3.43    4.03
 -11   0   3    2.40    3.99
 -10   0   3    7.78    4.43
  -9   0   3   -1.18    0.91
  -8   0   3    0.08    1.60
  -7   0   3    2.35    3.80
  -6   0   3    1.33    1.45
  -5   0   3    0.26    2.54
  -4   0   3    3.61    2.02
  -3   0   3    3.63    3.93
  -2   0   3    1.15    2.00
  -1   0   3    1.68    2.02
   0   0   3    3.65    2.33
   1   0   3    1.05    2.76
  -1   0  -3    0.99    1.22
   2   0   3    0.51    2.78
  -2   0  -3    2.79    3.12
  -2   0  -3    4.12    2.36
  -3   0  -3    0.13    2.54
  -3   0  -3    0.85    2.79
   3   0   3    2.43    3.84
   4   0   3    3.32    5.44
  -4   0  -3    0.70    3.24
  -4   0  -3    0.35    1.91
  -5   0  -3    0.50    2.31
  -5   0  -3    4.81    4.15
   5   0   3    0.44    4.86
  -6   0  -3   -2.15    1.37
  -6   0  -3    3.36    2.83
  -7   0  -3    2.96    3.29
  -8   0  -3    1.49    3.12
  -9   0  -3    0.92    1.25
 -10   0  -3    6.41    5.94
 -11   0  -3   11.42    8.06
 -12   0  -3    0.09    4.74
 -13   0  -3   13.93    8.37
 -14   0  -3   -3.28    6.09
 -15   0  -3    1.02    0.83
 -16   0  -3    2.99    5.03
 -17   0  -3    6.61    8.09
 -19  -1   3   -0.64    3.43
 -18   1   3    1.34    4.89
 -18  -1   3   -0.03    4.26
 -17   1   3    2.85    4.48
 -17  -1   3   20.79    9.96
 -16  -1   3    6.07    5.94
 -16   1   3   19.57    9.80
 -15  -1   3    5.62    4.89
 -15   1   3   12.20    6.71
 -14   1   3   60.18   13.67
 -14  -1   3   60.59   14.21
 -13   1   3    1.10    0.52
 -13  -1   3   11.87    6.90
 -12   1   3   16.13    7.44
 -12  -1   3   19.47    7.29
 -11   1   3   17.21    7.21
 -11  -1   3    9.16    4.00
 -10   1   3    4.65    4.34
 -10  -1   3    3.03    3.33
  -9   1   3   -1.25    1.17
  -9  -1   3   -0.50    1.28
  -8   1   3   14.59    5.79
  -8  -1   3    8.28    4.08
  -7   1   3  132.87   16.16
  -7  -1   3  153.64   18.30
  -6   1   3   44.95    9.13
  -6  -1   3   64.65   11.87
  -5   1   3    1.23    1.08
  -5  -1   3    6.49    3.41
  -4  -1   3  396.57   26.15
  -4   1   3  395.46   26.28
  -3   1   3    8.11    4.49
  -3  -1   3    4.66    2.54
  -2   1   3   29.26    6.78
  -2  -1   3   27.93    6.65
  -1  -1   3    4.82    3.48
  -1   1   3    6.36    3.42
   0  -1   3    2.49    2.87
   0   1   3    2.66    2.88
   1   1   3   21.68    6.64
   1  -1   3   22.35    5.89
  -1  -1  -3   22.21    4.90
  -1   1  -3   27.12    6.79
  -2   1  -3  124.46   13.80
  -2  -1  -3  114.52   11.09
   2  -1   3  116.50   12.84
  -2   1  -3  106.30   12.41
  -3  -1  -3   61.98   10.66
  -3  -1  -3   52.32    7.69
   3   1   3   57.42    8.94
   3  -1   3   54.43   10.08
  -3   1  -3   55.81    8.94
  -3   1  -3   51.32    9.07
  -4   1  -3  123.91   13.71
  -4   1  -3  129.21   14.60
  -4  -1  -3  119.18   12.22
  -4  -1  -3  113.27   14.47
   4   1   3  123.88   14.00
   4  -1   3  115.23   14.75
   5  -1   3   10.17    6.33
  -5   1  -3    7.10    4.19
  -5  -1  -3    6.48    4.43
  -5   1  -3    6.35    4.24
   5   1   3    9.87    5.99
  -5  -1  -3   12.76    5.61
  -6   1  -3   32.53    8.78
  -6  -1  -3   38.15    8.20
   6   1   3   33.92    8.81
  -6   1  -3   31.03    7.06
  -7   1  -3    2.85    1.59
  -7   1  -3    3.65    2.76
  -7  -1  -3    5.65    4.59
  -8  -1  -3   27.56    9.15
  -8   1  -3   22.17    8.07
  -9  -1  -3   16.37    6.59
  -9   1  -3   15.46    6.49
 -10   1  -3   -0.32    0.96
 -10  -1  -3   -1.33    4.91
 -11  -1  -3   28.25   10.49
 -11   1  -3   23.51    9.18
 -12  -1  -3   20.01    9.18
 -12   1  -3   10.51    5.96
 -13   1  -3    5.31    6.11
 -13  -1  -3   15.78    9.88
 -14  -1  -3   36.98   12.95
 -14   1  -3   30.91   14.35
 -15   1  -3    1.45    4.88
 -15  -1  -3    7.79    6.21
 -16   1  -3   18.59   12.31
 -16  -1  -3   10.99    9.24
 -17   1  -3    6.57    8.14
 -18   1  -3   15.92    9.58
 -19  -2   3   -3.01    3.64
 -18  -2   3    4.10    3.08
 -17   2   3    6.87    7.20
 -17  -2   3   13.52    7.57
 -16   2   3   14.58    7.65
 -16  -2   3   76.03   17.16
 -15   2   3   67.65   14.82
 -15  -2   3  109.32   19.83
 -14   2   3    3.41    3.94
 -14  -2   3    7.72    6.69
 -13   2   3   35.02    9.86
 -13  -2   3   35.11   11.10
 -12  -2   3   32.59   10.40
 -12   2   3   47.19   11.75
 -11   2   3    9.59    5.64
 -11  -2   3    0.02    1.56
 -10   2   3    7.83    4.88
 -10  -2   3   11.09    6.22
  -9   2   3   79.04   13.46
  -9  -2   3   49.78   11.23
  -8   2   3  145.68   17.65
  -8  -2   3  136.67   18.21
  -7   2   3  110.79   15.51
  -7  -2   3  136.94   17.31
   6  -2  -3   27.29    8.36
  -6   2   3   22.87    7.00
  -6  -2   3   31.00    8.44
   5  -2  -3  336.94   25.05
  -5  -2   3  331.01   24.77
  -5   2   3  332.94   24.88
   5  -2  -3  335.78   25.69
  -4   2   3   14.66    4.66
  -4  -2   3   15.78    5.03
  -3   2   3  348.24   24.72
  -3  -2   3  358.42   23.86
  -2   2   3    0.04    0.71
  -2  -2   3    1.68    2.35
  -1   2   3   38.73    7.98
  -1  -2   3   26.18    6.09
   0   2   3   17.70    5.05
   0   2  -3   11.83    4.63
   0  -2   3   16.95    5.53
   1   2   3   23.47    6.16
  -1  -2  -3   15.68    3.71
   1  -2   3   19.96    5.28
  -1   2  -3   31.05    6.86
  -2  -2  -3  319.93   16.33
  -2   2  -3  341.29   22.14
   2  -2   3  333.69   21.47
  -2   2  -3  332.54   22.81
   3  -2   3  370.86   22.19
  -3   2  -3  383.12   23.52
  -3   2  -3  330.56   23.41
  -3  -2  -3  344.11   18.12
   3   2   3  350.57   20.12
  -4  -2  -3  248.45   22.28
  -4   2  -3  278.58   19.95
  -4  -2  -3  256.99   17.17
   4   2   3  276.67   19.27
  -4   2  -3  271.19   21.71
   4  -2   3  292.73   24.98
  -5   2  -3  173.40   15.80
  -5  -2  -3  163.57   15.59
  -5   2  -3  165.56   17.29
   5   2   3  173.54   16.77
  -6  -2  -3   97.13   13.42
  -6   2  -3  100.54   14.12
   6   2   3  110.75   14.50
  -6   2  -3  102.33   12.44
  -7   2  -3   27.72    6.57
  -7   2  -3   33.40    8.60
  -7  -2  -3   26.42    7.56
  -8   2  -3    7.16    3.79
  -8  -2  -3   -0.91    3.35
  -8   2  -3    1.80    4.63
  -9   2  -3   19.99    8.75
  -9   2  -3   13.73    5.69
  -9  -2  -3   21.13    7.32
 -10   2  -3  112.72   19.31
 -10  -2  -3  131.54   19.86
 -11  -2  -3    2.42    3.33
 -11   2  -3    5.97    6.30
 -12  -2  -3   29.92    9.68
 -12   2  -3   19.59    8.86
 -13   2  -3   82.58   19.16
 -13  -2  -3   94.72   19.67
 -14  -2  -3   10.78    5.49
 -14   2  -3   26.18   10.84
 -15   2  -3   19.45   10.86
 -16   2  -3   -0.54    3.65
 -17   2  -3    9.02    5.27
 -19  -3   3    4.39    4.49
 -18  -3   3   13.55    6.54
 -17  -3   3   16.95    9.70
 -16   3   3    2.54    4.52
 -16  -3   3    8.96    6.92
 -15   3   3    6.26    3.96
 -15  -3   3   10.15    7.11
 -14   3   3   57.40   12.83
 -14  -3   3   97.01   18.46
 -13   3   3   -0.37    2.63
 -13  -3   3   12.10    7.90
 -12   3   3   11.02    7.06
 -12  -3   3   -0.56    2.26
 -11   3   3   84.36   14.71
 -11  -3   3   64.95   13.88
 -10   3   3    7.75    4.87
 -10  -3   3    1.23    2.38
  -9   3   3   -0.02    3.24
  -9  -3   3    3.48    2.40
  -8   3   3    3.00    3.81
  -8  -3   3    4.40    4.04
  -7  -3   3  287.02   25.49
  -7   3   3  285.62   24.42
  -6   3   3    9.23    4.32
   6  -3  -3   11.99    5.59
  -6  -3   3   16.14    6.96
   6  -3  -3   11.26    5.75
   5  -3  -3   22.33    7.40
  -5   3   3   22.15    7.25
   5  -3  -3   14.20    5.57
  -5  -3   3   12.27    4.30
   4  -3  -3  306.81   21.76
  -4  -3   3  295.28   23.02
  -4   3   3  311.29   23.73
   4  -3  -3  292.73   24.00
  -3   3   3   56.23   10.19
  -3  -3   3   65.65   10.39
  -2  -3   3    3.84    3.01
  -2   3   3    2.57    0.93
  -1   3   3    4.52    3.08
  -1  -3   3    0.62    1.32
   1   3  -3   -0.30    1.92
   0  -3   3  205.54   17.07
   0   3  -3  192.61   16.55
   0   3   3  188.74   17.77
  -1  -3  -3    4.88    2.09
   1  -3   3    8.29    3.65
  -1   3  -3    4.53    2.88
  -2   3  -3  151.78   13.97
   2  -3   3  145.96   13.85
  -2  -3  -3  152.04    9.80
  -2   3  -3  130.59   15.04
   3  -3   3  202.04   15.76
  -3  -3  -3  215.62   13.23
  -3   3  -3  213.36   16.40
  -3   3  -3  219.15   19.69
   3   3   3  216.37   14.43
  -4   3  -3   30.63    7.36
  -4   3  -3   38.58    7.13
   4   3   3   35.26    6.52
  -4  -3  -3   40.64    7.27
   5   3   3    7.91    4.35
  -5   3  -3   11.35    4.07
  -5  -3  -3    7.38    3.89
  -5   3  -3   11.69    6.41
  -6   3  -3    7.70    3.69
  -6   3  -3    5.31    5.58
  -6  -3  -3    9.99    5.09
   6   3   3    8.26    2.64
  -7   3  -3   85.31   13.83
   7   3   3   82.74   12.55
  -7  -3  -3   69.05   11.99
  -7   3  -3   75.39   10.51
  -8   3  -3    9.84    5.91
  -8   3  -3    5.26    2.29
  -8  -3  -3   10.91    5.93
  -9   3  -3   26.79    6.81
  -9   3  -3   26.39    8.38
  -9  -3  -3   39.83   10.78
 -10  -3  -3   49.09   12.43
 -10   3  -3   38.31   12.61
 -10   3  -3   20.28    6.46
 -11  -3  -3   13.22    7.83
 -11   3  -3   12.69    8.98
 -12  -3  -3   15.25    7.33
 -12   3  -3   13.31    6.91
 -13   3  -3    2.39    5.20
 -13  -3  -3   16.19    9.78
 -14   3  -3   34.09   14.71
 -15   3  -3   -0.01    4.42
 -16   3  -3   -1.93    5.02
 -17   3  -3   22.21   13.67
 -19  -4   3    1.34    5.27
 -18  -4   3   15.16    8.09
 -17  -4   3   35.42   13.70
 -16   4   3   -2.33    3.55
 -16  -4   3   -2.95    1.98
 -15   4   3   12.74    6.50
 -15  -4   3   10.81    8.36
 -14   4   3    6.58    4.72
 -14  -4   3    4.98    6.49
 -13   4   3    5.37    4.81
 -13  -4   3    0.78    2.73
 -12   4   3    0.00    3.31
 -12  -4   3   -3.70    5.25
 -11  -4   3  112.93   18.60
 -11   4   3  108.77   17.19
 -10   4   3   48.07   11.06
 -10  -4   3   29.77    9.59
  -9   4   3    9.10    4.84
  -9  -4   3    3.71    1.46
  -8   4   3  137.26   17.63
  -8  -4   3  126.17   17.66
  -7   4   3   82.26   13.06
  -7  -4   3   89.25   14.46
  -6   4   3   18.82    5.71
   6  -4  -3   33.98    9.21
  -6  -4   3   24.76    6.56
  -5   4   3    3.37    0.94
   5  -4  -3    1.73    2.29
   5  -4  -3   -0.68    0.78
  -5  -4   3   -1.51    2.99
  -4   4   3  229.47   20.80
   4  -4  -3  212.96   19.13
  -4  -4   3  226.76   20.69
   4  -4  -3  212.87   20.90
  -3   4   3   27.29    7.25
   3  -4  -3   26.24    7.78
   3  -4  -3   29.55    6.44
  -3  -4   3   34.68    8.28
  -2   4   3   16.18    5.72
   2  -4  -3   13.31    3.93
  -2  -4   3   16.39    5.77
  -1   4   3  615.27   32.79
  -1  -4   3  610.15   29.87
   1   4  -3  614.88   30.42
   0  -4   3   33.97    6.66
   0   4  -3   36.59    7.08
  -1   4  -3  124.94   12.78
  -1  -4  -3   90.33    5.54
   1  -4   3  117.67   12.84
   2  -4   3    1.44    1.20
  -2   4  -3    2.20    1.73
  -2  -4  -3    2.68    1.66
  -2   4  -3   -0.68    2.63
   3   4   3   12.30    3.75
   3  -4   3   12.71    4.28
  -3  -4  -3   13.36    3.32
  -3   4  -3   13.59    4.38
  -3   4  -3   14.28    5.32
   4   4   3   31.31    5.88
  -4  -4  -3   22.73    5.75
  -4   4  -3   27.21    5.55
  -4   4  -3   20.39    6.56
  -5  -4  -3   72.55   10.05
  -5   4  -3   57.71    8.02
  -5   4  -3   44.44    9.42
   5   4   3   57.69    8.70
  -6   4  -3  218.09   15.50
  -6   4  -3  259.81   23.73
  -6  -4  -3  254.00   21.07
   6   4   3  243.72   19.35
  -7   4  -3    1.35    1.57
  -7   4  -3   -4.03    1.53
   7   4   3    0.51    2.40
  -8   4  -3   10.65    3.67
  -8   4  -3   15.32    7.55
  -8  -4  -3   16.90    7.59
  -9   4  -3   24.70    6.03
  -9   4  -3   33.92    9.46
  -9  -4  -3   44.21   11.12
 -10   4  -3   14.33    8.45
 -10  -4  -3   13.23    6.80
 -10   4  -3    5.67    3.49
 -11   4  -3   30.88   10.66
 -12   4  -3   24.83    9.28
 -13   4  -3   40.45   14.02
 -14   4  -3    3.69    8.01
 -15   4  -3   -3.55    4.10
 -16   4  -3   37.48   14.10
 -17   4  -3   11.58    9.45
 -19  -5   3   12.01    9.95
 -18  -5   3   21.40   11.57
 -17  -5   3    9.00    7.63
 -16  -5   3   16.49    6.03
 -15   5   3    6.50    5.93
 -15  -5   3   18.77    8.39
 -14   5   3    2.06    3.15
 -14  -5   3    4.80    4.04
 -13   5   3   18.00    8.17
 -13  -5   3   20.60    8.55
 -12   5   3  118.08   18.23
 -12  -5   3  109.68   19.44
 -11   5   3   38.05   10.02
 -11  -5   3   47.09   12.16
 -10   5   3   16.07    6.90
 -10  -5   3    5.65    6.45
  -9   5   3    4.29    3.95
  -9  -5   3   -0.39    2.17
  -8   5   3    3.87    4.55
  -8  -5   3    0.63    1.89
  -7   5   3    8.93    5.31
  -7  -5   3    8.32    2.98
   6  -5  -3  261.55   25.00
  -6   5   3  259.15   22.76
  -6  -5   3  256.30   24.00
  -5  -5   3  167.52   18.59
   5  -5  -3  148.84   17.96
  -5   5   3  162.06   17.69
   5  -5  -3  149.77   16.72
  -4   5   3    2.20    2.24
   4  -5  -3    4.16    4.83
   4  -5  -3    2.66    2.59
  -4  -5   3   -1.54    2.09
  -3   5   3    3.58    1.38
   3  -5  -3   12.65    6.24
   3  -5  -3    7.22    3.74
  -3  -5   3   16.53    6.37
   2   5  -3   28.51    7.85
  -2   5   3   24.60    6.86
  -2  -5   3   33.96    8.03
   2  -5  -3   29.75    5.38
   1   5  -3    1.25    4.87
  -1  -5   3    3.64    4.02
   1  -5  -3    0.53    1.10
   0  -5   3  338.55   22.35
   0   5  -3  370.00   22.98
   1  -5   3  162.77   14.97
  -1   5  -3  171.79   14.86
   2  -5   3   16.57    5.11
  -2   5  -3   15.94    5.56
  -2   5  -3   14.56    3.92
   3  -5   3  102.82   10.86
  -3   5  -3  103.35   10.43
   3   5   3   77.03    6.94
  -3   5  -3   95.14   14.08
   4  -5   3   89.25    9.45
  -4   5  -3   83.23    8.69
  -4   5  -3   95.69   14.94
   4   5   3   95.36    9.17
  -5   5  -3   18.31    6.48
  -5   5  -3   14.69    3.73
   5   5   3   10.37    4.60
  -6   5  -3   79.08    8.22
   6   5   3   97.98   11.56
  -6   5  -3  104.56   16.06
   7   5   3   99.79   13.44
  -7   5  -3   81.96   14.72
  -7   5  -3   67.23    7.98
  -8   5  -3    7.46    4.22
  -8   5  -3    6.48    2.88
  -9   5  -3   16.93    4.41
  -9   5  -3   20.40    9.00
 -10   5  -3  143.15   21.24
 -11   5  -3   32.57   11.96
 -12   5  -3    7.52    5.97
 -13   5  -3    7.85    3.90
 -14   5  -3    8.20    8.60
 -15   5  -3   -2.16    4.36
 -16   5  -3   15.29   11.95
 -17   5  -3   35.40   14.60
 -18  -6   3   11.72   10.11
 -17  -6   3   13.07    8.13
 -16  -6   3   12.76    9.54
 -15  -6   3    5.37    3.54
 -14   6   3    8.53    5.41
 -14  -6   3   12.58    8.32
 -13   6   3    5.29    4.37
 -13  -6   3    2.58    0.39
 -12   6   3   22.86    7.90
 -12  -6   3   27.57    9.66
 -11   6   3   15.80    5.04
 -11  -6   3   29.12   10.17
 -10   6   3   35.28    9.27
 -10  -6   3   37.16   10.39
  -9  -6   3   17.64    7.34
  -9   6   3   19.96    7.12
  -8   6   3    9.54    5.55
  -8  -6   3    3.82    1.62
  -7   6   3  102.18   14.91
  -7  -6   3   92.12   15.38
  -6   6   3    0.66    0.30
   6  -6  -3   -0.18    2.42
  -6  -6   3    1.43    3.21
  -5   6   3  118.63   15.70
   5  -6  -3  130.29   15.65
  -5  -6   3  133.96   17.44
   4  -6  -3   24.86    6.86
  -4   6   3   21.85    6.26
   4  -6  -3   30.21    9.08
  -4  -6   3   20.45    7.31
   3  -6  -3    1.36    2.51
  -3   6   3    3.31    3.49
   3  -6  -3    5.88    4.88
  -3  -6   3    3.60    1.53
   2  -6  -3  159.68   11.13
  -2  -6   3  174.73   17.16
   2  -6  -3  146.12   18.47
  -1  -6   3  196.73   17.47
   1   6  -3  213.56   19.07
   0  -6   3   68.88   10.06
   0   6  -3   69.89   10.25
  -1   6  -3    2.66    2.09
   1  -6   3    4.02    2.59
  -2   6  -3  157.32   13.52
   2  -6   3  155.93   14.22
  -2   6  -3  160.38   18.98
  -3   6  -3   35.09    8.81
   3  -6   3   28.28    5.58
   3   6   3   13.84    2.68
  -3   6  -3   23.91    5.08
   4  -6   3    1.32    1.75
  -4   6  -3   -2.32    2.26
   4   6   3    4.53    2.54
  -4   6  -3    1.81    1.91
   5   6   3  330.87   18.28
  -5   6  -3  333.71   28.31
  -5   6  -3  282.52   14.48
   6   6   3   45.22    7.72
  -6   6  -3   26.52    4.16
  -6   6  -3   41.43   10.15
   7   6   3   10.40    5.22
  -7   6  -3    3.41    4.54
  -7   6  -3    3.65    1.76
  -8   6  -3    2.72    1.45
  -8   6  -3    0.02    5.05
  -9   6  -3    8.22    4.42
  -9   6  -3    1.87    1.01
 -10   6  -3   17.86    8.28
 -11   6  -3   27.25   11.32
 -12   6  -3   84.76   19.13
 -13   6  -3    1.26    4.42
 -14   6  -3   20.01   10.97
 -15   6  -3   14.04    9.23
 -16   6  -3   -0.09    5.56
 -17  -7   3   13.19   10.41
 -16  -7   3    6.48    6.71
 -15  -7   3   20.75    9.18
 -14   7   3    3.12    4.47
 -14  -7   3    1.24    2.37
 -13   7   3   31.82    8.37
 -13  -7   3   34.85   11.84
 -12   7   3   15.84    6.79
 -12  -7   3    3.22    2.15
 -11   7   3    1.17    3.70
 -11  -7   3    0.72    2.89
 -10   7   3   56.78   11.64
 -10  -7   3   53.71   13.87
  -9   7   3    7.24    4.23
  -9  -7   3    6.14    0.82
  -8   7   3   87.77   14.25
  -8  -7   3   62.85   13.56
  -7   7   3    1.49    2.99
  -7  -7   3    7.80    5.10
  -6   7   3  115.72   15.81
  -6  -7   3  128.89   17.71
   5  -7  -3   66.02   10.94
  -5  -7   3   65.17   12.32
  -5   7   3   73.14   12.61
  -4   7   3   -0.25    1.37
   4  -7  -3    7.09    3.96
  -4  -7   3    3.53    2.53
   3  -7  -3  149.71   12.87
  -3  -7   3  150.99   16.88
   2  -7  -3   45.23    5.99
  -2  -7   3   44.95    9.03
  -1  -7   3  104.82   13.38
   0  -7   3    9.45    4.02
   1  -7   3  128.93   13.62
  -1   7  -3  136.59   17.80
   2  -7   3   61.17    8.72
  -2   7  -3   68.62   13.03
  -3   7  -3    8.61    5.09
   3  -7   3    8.28    3.18
   4  -7   3  103.30   10.00
   4   7   3   84.97    7.27
  -4   7  -3  109.03   16.36
  -5   7  -3    7.32    4.95
   5   7   3    7.04    2.43
   6   7   3   21.15    5.87
  -6   7  -3   12.71    6.38
   7   7   3    7.62    3.47
  -7   7  -3   10.94    7.29
  -8   7  -3  105.97   17.82
   8   7   3   68.62   11.80
  -9   7  -3   48.49   11.86
 -10   7  -3   10.97    6.94
 -11   7  -3   37.69   12.62
 -12   7  -3   -1.41    3.78
 -13   7  -3    6.03    5.30
 -14   7  -3    6.92   10.65
 -15   7  -3   23.71   11.53
 -16   7  -3    9.38    7.88
 -17  -8   3   -2.19    7.04
 -16  -8   3   26.75   12.60
 -15  -8   3   12.65    8.09
 -14  -8   3   -1.00    1.90
 -13   8   3   -0.07    2.52
 -13  -8   3    5.26    5.52
 -12   8   3   46.33   10.71
 -12  -8   3   56.35   14.65
 -11   8   3   31.66    8.59
 -11  -8   3   27.59   10.94
 -10   8   3   11.59    4.81
 -10  -8   3    1.95    3.01
  -9   8   3  362.56   28.29
  -9  -8   3  294.69   30.50
  -8   8   3    7.55    4.55
  -8   8   3    6.74    5.20
  -8  -8   3    8.36    5.85
  -7   8   3   20.81    5.61
  -7   8   3   15.26    6.04
  -7  -8   3   16.96    7.11
  -6   8   3   18.60    6.02
  -6   8   3   22.95    7.94
  -6  -8   3   10.11    6.76
   5  -8  -3    5.42    4.14
  -5   8   3    3.62    2.24
  -5   8   3    8.56    4.24
  -5  -8   3    7.07    5.19
  -4   8   3   15.76    5.23
   4  -8  -3   28.27    7.34
  -4  -8   3   22.18    7.08
  -3  -8   3  236.81   21.86
   3  -8  -3  217.64   16.22
  -2  -8   3  406.70   27.58
   2  -8  -3  371.34   18.16
  -1  -8   3  166.52   17.30
   0  -8   3    4.09    1.71
   1  -8   3  245.32   19.05
  -1   8  -3  247.56   25.29
   2  -8   3    7.16    3.16
  -2   8  -3   19.35    7.39
  -3   8  -3   39.33    9.88
   3  -8   3   39.05    6.89
   4  -8   3  120.05   10.61
   4   8   3  106.60    7.65
  -4   8  -3  148.02   19.94
  -5   8  -3   67.46   13.71
   5   8   3   57.01    7.16
   6   8   3   17.14    5.33
  -6   8  -3   19.91    7.85
  -7   8  -3   65.98   15.05
   7   8   3   54.42    9.27
   8   8   3   70.07   12.01
  -8   8  -3  112.17   19.01
  -9   8  -3   59.26   13.77
 -10   8  -3    9.01    4.68
 -11   8  -3    4.66    5.60
 -12   8  -3   33.05   11.94
 -13   8  -3    4.47    4.58
 -14   8  -3   25.54   10.05
 -15   8  -3   21.31   10.88
 -16  -9   3   18.32   10.91
 -15  -9   3   12.85    9.34
 -14  -9   3    4.52    6.92
 -13  -9   3   41.08   13.83
 -12   9   3    8.10    3.95
 -12  -9   3   26.66   10.86
 -11   9   3   13.89    6.03
 -11  -9   3    7.19    4.44
 -10   9   3   69.37   14.74
 -10   9   3   59.58   11.54
 -10  -9   3   76.22   17.44
  -9   9   3    9.40    5.11
  -9   9   3    6.61    4.54
  -9  -9   3   -0.92    0.88
  -8   9   3   63.83   12.14
  -8   9   3   76.88   14.90
  -8  -9   3   70.30   15.74
  -7   9   3    5.87    5.12
  -7   9   3    6.04    3.90
  -7  -9   3    1.76    1.71
  -6   9   3    4.74    3.85
  -6  -9   3    2.58    2.46
  -5   9   3    1.52    2.79
   5  -9  -3    3.32    4.63
  -5  -9   3    1.04    0.87
   4  -9  -3   16.47    5.68
  -4   9   3    8.39    3.73
  -4  -9   3   16.44    6.70
  -3   9   3   50.30    8.67
   3  -9  -3   68.10    9.65
  -3  -9   3   78.04   12.91
  -2  -9   3   36.60    8.73
  -1  -9   3   84.85   12.53
   0  -9   3   68.50   10.73
  -1   9  -3   23.89    9.02
   1  -9   3   31.27    7.08
   2  -9   3  101.78   11.57
  -2   9  -3  147.03   20.66
   3  -9   3    2.14    2.11
  -3   9  -3    5.32    6.20
   4   9   3    6.07    1.79
   4  -9   3    6.61    2.68
  -4   9  -3   14.26    8.08
   5   9   3   29.85    5.22
  -5   9  -3   23.80    8.83
   5  -9   3   22.27    3.68
   6   9   3    1.64    1.62
  -6   9  -3    2.45    7.47
   7   9   3   19.35    5.41
  -7   9  -3   34.28   10.99
  -8   9  -3   90.04   17.57
  -9   9  -3   12.71    8.08
 -10   9  -3   13.13    6.85
 -11   9  -3   14.30    7.93
 -12   9  -3   11.01    6.55
 -13   9  -3   10.73    8.32
 -14   9  -3   12.78    6.78
 -15   9  -3   32.62   15.13
 -16 -10   3   12.94    7.87
 -15 -10   3    2.89    6.73
 -14 -10   3   -0.14    3.87
 -13 -10   3   12.59    7.73
 -12 -10   3   -1.50    1.56
 -11  10   3    9.05    6.26
 -11  10   3   14.59    6.42
 -10  10   3    2.77    4.46
 -10  10   3   -2.72    4.07
 -10 -10   3    2.04    0.66
  -9  10   3   29.84    9.83
  -9 -10   3   28.24   11.83
  -8  10   3    4.11    4.65
  -8 -10   3    5.06    5.33
  -7 -10   3    3.83    2.70
  -7  10   3    7.96    6.57
  -6  10   3    2.38    3.78
  -6 -10   3   -3.77    0.69
  -5  10   3    3.76    4.67
   5 -10  -3   -2.29    1.08
  -5 -10   3    8.15    5.67
  -4  10   3    5.61    4.60
   4 -10  -3    9.54    5.56
  -4 -10   3    7.69    3.45
  -3  10   3    6.86    3.68
   3 -10  -3   18.32    6.42
  -3 -10   3   15.34    5.94
  -2  10   3   26.81    5.77
  -2 -10   3   37.95    9.57
  -1  10   3    4.67    2.13
  -1 -10   3    8.74    4.99
   0 -10   3    0.00    2.47
   1 -10   3    8.50    4.61
  -1  10  -3    1.85    2.73
  -2  10  -3    4.06    5.26
   2 -10   3    8.78    3.69
   3 -10   3    2.58    2.07
  -3  10  -3    6.89    5.81
   4  10   3    3.21    1.70
   4 -10   3    4.37    2.54
   5  10   3    0.89    1.63
  -5  10  -3    6.85    6.11
   5 -10   3    2.13    1.41
   6  10   3    0.88    1.90
  -6  10  -3   15.42    9.40
  -7  10  -3    9.10    5.96
  -8  10  -3    7.55    5.20
  -9  10  -3    8.77    6.38
 -10  10  -3    3.61    6.43
 -11  10  -3    0.70    4.84
 -12  10  -3   18.66    9.60
 -13  10  -3    8.37    9.70
 -14  10  -3   19.71   10.48
 -15 -11   3   -2.33    2.80
 -14 -11   3   -0.15    0.49
 -13 -11   3   -0.10    3.84
 -12  11   3   26.55   11.57
 -12 -11   3    3.39    4.88
 -11  11   3   17.45    9.95
 -11 -11   3    6.03    5.60
 -10  11   3   12.89    7.39
 -10 -11   3   18.75    7.74
  -9 -11   3   -3.71    5.10
  -9  11   3    2.89    6.32
  -8 -11   3   11.71    6.16
  -8  11   3   11.93    6.65
  -7 -11   3    3.14    4.48
  -7  11   3   -0.42    0.59
  -6 -11   3   -2.03    2.16
  -6  11   3   -2.60    2.73
  -5  11   3    3.93    3.66
   5 -11  -3    5.33    6.11
  -5 -11   3    4.67    5.02
   4 -11  -3   13.37    7.12
  -4  11   3    2.95    3.29
  -4 -11   3    9.17    5.21
  -3  11   3    3.52    4.07
  -3 -11   3    5.22    3.99
  -2  11   3   15.26    4.75
  -2 -11   3   17.00    6.71
  -1  11   3    0.45    1.31
  -1 -11   3    4.11    1.90
   0  11   3   18.78    3.55
   0 -11   3   39.93    9.29
  -1  11  -3    0.83    2.47
   1 -11   3    5.04    3.65
  -2  11  -3   18.00    7.44
   2 -11   3   24.85    6.54
   3 -11   3    6.49    3.68
  -3  11  -3   11.87    6.52
   4 -11   3   12.68    3.63
   4  11   3    6.68    1.94
   5 -11   3    8.40    2.21
  -5  11  -3   14.98    8.19
   5  11   3    9.40    3.07
  -6  11  -3   14.86    8.53
  -7  11  -3   11.87    8.06
  -8  11  -3   28.09   11.85
  -9  11  -3    3.89    3.21
 -10  11  -3   16.96    7.73
 -11  11  -3    7.05    6.53
 -12  11  -3   17.23   11.95
 -13  11  -3    6.41    4.48
 -14  11  -3    5.38    7.01
 -14 -12   3  -11.52   10.55
 -13  12   3    6.76    3.79
 -13 -12   3    4.17    3.99
 -12  12   3    6.53    7.40
 -12 -12   3    5.87    8.14
 -11  12   3   27.13   11.11
 -11 -12   3   20.69   10.64
 -10 -12   3   13.81    8.48
 -10  12   3   13.71    7.95
  -9 -12   3  110.57   21.02
  -9  12   3   97.81   18.79
  -8 -12   3    4.38    6.59
  -8  12   3   15.54    8.47
  -7 -12   3   10.27    4.58
  -7  12   3    9.57    7.00
  -6 -12   3   14.01    8.32
  -6  12   3   25.99    8.71
  -5 -12   3    7.18    7.04
  -5  12   3    5.41    4.94
  -4  12   3   11.46    5.13
  -4 -12   3   13.73    6.87
  -3  12   3   45.77    9.26
  -3 -12   3   88.48   16.07
  -2 -12   3   85.89   15.06
  -2  12   3   54.77    8.41
  -1  12   3   72.68    8.44
  -1 -12   3  117.12   16.08
   0  12   3    1.81    1.20
   0  12  -3   -3.55    4.72
   1 -12   3  113.37   14.73
  -1  12  -3  138.95   22.13
  -2  12  -3   10.52    4.71
   2 -12   3   10.60    5.27
   3 -12   3   17.17    4.80
  -3  12  -3   30.11   10.81
   4  12   3    5.44    2.10
   4 -12   3   12.99    3.57
  -5  12  -3    4.52    4.90
  -6  12  -3   29.50   10.68
  -7  12  -3   40.20   11.16
  -8  12  -3   61.55   16.60
  -9  12  -3   75.32   17.47
 -10  12  -3   17.77   10.41
 -11  12  -3   21.12   10.64
 -12  12  -3   11.64    7.33
 -13  12  -3   14.82    9.95
 -14 -13   3   -3.42    6.96
 -13  13   3   39.43   13.33
 -13 -13   3   48.83   16.66
 -12  13   3    8.75    8.79
 -12 -13   3   11.37    8.39
 -11  13   3   22.23   10.32
 -11 -13   3   10.11    8.72
 -10 -13   3   14.71    8.00
 -10  13   3   21.01    9.41
  -9 -13   3   19.01    9.58
  -9  13   3    0.84    0.49
  -8 -13   3   14.87    8.12
  -8  13   3   13.26    7.82
  -7 -13   3    9.98    6.77
  -7  13   3    0.23    4.16
  -6 -13   3   36.94   10.84
  -6  13   3   26.97    9.88
  -5 -13   3   15.82    8.46
  -5  13   3    7.81    4.59
  -4  13   3    3.02    3.96
  -4 -13   3    2.73    4.67
  -3  13   3   11.30    4.89
  -3 -13   3   19.28    7.33
  -2  13   3   10.58    4.54
  -2 -13   3   22.78    8.60
  -1  13   3   11.45    4.02
  -1 -13   3   19.13    7.95
   0  13  -3   27.04   12.56
   0  13   3    8.10    2.89
   0 -13   3   20.38    7.31
   1  13   3   52.00    4.68
   1 -13   3   76.07   12.06
  -1  13  -3   83.99   17.24
  -2  13  -3   80.21   18.22
   2 -13   3   63.88   10.83
   3 -13   3    6.80    3.42
  -3  13  -3   -1.29    2.26
  -4  13  -3   28.90   11.43
   4 -13   3   18.14    5.10
  -5  13  -3   13.52    7.91
  -6  13  -3    1.68    3.75
  -7  13  -3   18.80    9.29
  -8  13  -3   95.42   19.36
  -9  13  -3   12.02    8.83
 -10  13  -3   18.22   10.24
 -11  13  -3   19.89   11.42
 -12  13  -3    3.01    4.29
 -13  13  -3    7.05    8.35
 -14  14   3   12.63    9.41
 -13  14   3   28.95   12.80
 -13 -14   3   30.16   13.69
 -12  14   3   17.09   10.71
 -12 -14   3    6.75    5.04
 -11  14   3   16.72   11.64
 -11 -14   3    7.25    5.76
 -10 -14   3   17.43   10.35
 -10  14   3   10.31    7.94
  -9 -14   3   19.68    7.48
  -9  14   3   29.33   11.34
  -8 -14   3   10.06    5.74
  -8  14   3    4.80    5.53
  -7 -14   3    9.69    5.58
  -7  14   3   34.34   10.57
  -6 -14   3   35.53   12.65
  -6  14   3   16.99    8.01
  -5 -14   3   64.46   16.25
  -5  14   3   41.54   11.07
  -4  14   3    5.56    4.98
  -4 -14   3    7.18    5.06
  -3  14   3    1.67    2.96
  -3 -14   3    2.80    4.21
  -2  14   3   26.31    7.09
  -2 -14   3   40.41   11.51
   1  14  -3    5.24    5.36
  -1  14   3    6.15    3.06
  -1 -14   3    7.48    3.38
   0  14  -3   44.09   14.80
   0 -14   3   31.98    9.45
  -1  14  -3   13.60   10.02
   1 -14   3    5.22    4.05
  -2  14  -3   78.20   17.71
   2 -14   3   50.85    9.54
  -3  14  -3    3.22    6.78
   3 -14   3    3.03    3.73
  -4  14  -3    7.22    6.97
  -5  14  -3   81.84   18.32
  -6  14  -3   -3.03    5.20
  -7  14  -3   10.09    8.29
  -8  14  -3    6.93    4.58
  -9  14  -3    5.02    7.29
 -10  14  -3   11.30    9.39
 -11  14  -3   17.17   11.95
 -12  14  -3   44.49   15.72
 -14  15   3   15.15    6.83
 -13  15   3   11.09    7.58
 -12  15   3   46.48   14.44
 -12 -15   3   63.32   18.06
 -11  15   3   11.17    7.57
 -11 -15   3   14.98    5.99
 -10 -15   3   12.95    7.24
 -10  15   3   10.58    6.10
  -9 -15   3    7.70    7.50
  -9  15   3    5.60    8.00
  -8 -15   3    8.56    7.52
  -8  15   3    5.97    3.06
  -7 -15   3    3.63    4.73
  -7  15   3    8.51    7.50
  -6 -15   3   83.91   18.75
  -6  15   3   57.97   13.52
  -5 -15   3   39.18   13.13
  -5  15   3   40.43   10.22
  -4 -15   3    9.03    5.79
  -3 -15   3    3.00    4.56
  -2 -15   3   21.23    7.78
   1  15  -3    7.60    5.48
  -1 -15   3   -1.21    1.40
   0  15  -3   48.16   14.33
   0 -15   3   42.93   10.31
  -1  15  -3   94.61   19.03
   1 -15   3   76.84   13.53
   2 -15   3    3.02    1.93
  -2  15  -3    8.94    7.81
  -3  15  -3   11.07   10.73
  -4  15  -3   49.53   15.25
  -5  15  -3   15.26    8.29
  -6  15  -3   29.21   13.19
  -7  15  -3   10.47    5.70
  -8  15  -3   10.97    8.12
  -9  15  -3    7.02    2.22
 -10  15  -3   27.93   12.86
 -11  15  -3   13.36    8.98
 -11 -16   3   13.55    9.86
 -10 -16   3   27.36   13.27
  -9 -16   3    0.75    3.92
  -8 -16   3    5.44    2.24
  -7 -16   3   38.96   14.58
  -6 -16   3   -1.84    4.61
  -5 -16   3   18.16    7.74
  -4 -16   3   35.66   12.20
  -3 -16   3    5.43    7.69
   2  16  -3    1.08    3.99
  -2 -16   3   -1.81    1.50
  -1 -16   3  109.98   18.25
   1  16  -3  147.39   25.39
   0  16  -3   46.10   15.68
   0 -16   3   27.94    8.88
  -1  16  -3   28.59   11.39
   1 -16   3    9.52    3.31
  -2  16  -3   32.91   11.92
  -3  16  -3    8.22    7.51
  -4  16  -3    8.98    8.33
  -5  16  -3   50.29   14.91
  -6  16  -3   68.34   17.72
  -7  16  -3    7.92    8.55
  -8  16  -3   20.28    9.59
  -9  16  -3    3.98    6.19
 -10  16  -3   17.88   11.31
 -10 -17   3    7.69    7.46
  -9 -17   3    0.81    4.24
  -8 -17   3    0.28    5.96
  -7 -17   3   11.12    9.38
  -6 -17   3    9.72    7.10
  -5 -17   3   36.42   13.38
  -4 -17   3   34.74   13.74
  -3 -17   3    6.00    4.90
   2  17  -3    6.88    5.49
  -2 -17   3    5.76    6.94
   1  17  -3    8.17    7.54
  -1 -17   3    2.96    5.15
   0  17  -3   26.98   12.47
   0 -17   3   17.88    8.78
  -1  17  -3   22.00   12.29
  -2  17  -3   50.65   14.82
  -3  17  -3   53.28   15.95
  -4  17  -3    5.13    4.80
  -5  17  -3   -5.21    5.29
  -6  17  -3    8.83    8.20
  -7  17  -3   23.08   11.97
  -8  17  -3    4.83    5.62
  -9  17  -3    3.59    2.15
 -10 -18   3    3.26    5.93
  -9 -18   3   -1.63    2.00
  -8 -18   3    8.78    9.21
  -7 -18   3    6.18    3.98
  -6 -18   3   15.54    9.85
  -5 -18   3   14.43   10.31
  -4 -18   3   16.47    7.12
   3  18  -3   45.80   16.44
  -3 -18   3   38.66   12.45
   2  18  -3   15.04    7.38
  -2 -18   3    8.43    5.56
   1  18  -3   39.39   14.90
  -1 -18   3   12.29    8.03
   0  18  -3   18.51   11.20
  -1  18  -3   20.67   11.58
  -2  18  -3   14.00   11.49
  -3  18  -3   61.95   17.68
  -4  18  -3   18.62   10.72
  -5  18  -3    9.40    7.46
  -6  18  -3   29.10   13.88
  -7  18  -3   37.54   16.27
  -8  18  -3   -5.29    1.82
  -9 -19   3    3.84    3.72
  -8 -19   3    6.29    8.34
  -7 -19   3    6.70    8.37
  -6 -19   3    5.00    9.66
  -5 -19   3    4.23    3.86
   4  19  -3   50.30   19.69
  -4 -19   3   23.42   12.00
   3  19  -3   18.54   13.96
  -3 -19   3    6.22    7.87
   2  19  -3   13.81   10.91
   1  19  -3   19.26   13.34
   0  19  -3   19.80    7.37
  -1  19  -3   25.33   14.31
  -2  19  -3   54.74   18.71
  -3  19  -3   24.52   11.99
  -4  19  -3   30.38   13.71
  -5  19  -3    9.11    7.72
  -6  19  -3   12.75    8.92
  -7  19  -3    4.98    9.02
  -7 -20   3    1.27    4.14
  -6 -20   3    0.25    0.74
  -5 -20   3    0.75    5.61
   4  20  -3   21.47   13.68
  -4 -20   3    6.02    8.69
   3  20  -3   31.14   14.19
   2  20  -3   13.39    8.97
   1  20  -3    5.58    8.96
   0  20  -3   12.28    9.30
  -1  20  -3    2.12    6.50
  -2  20  -3   24.28   13.70
  -3  20  -3   19.46   12.21
  -4  20  -3    2.15    6.56
  -5  20  -3    9.54    8.50
  -6 -21   3    8.16    7.70
   5  21  -3    6.69    6.20
  -5 -21   3    2.99    5.27
   4  21  -3    7.89    8.60
   3  21  -3   27.12   16.63
   2  21  -3    9.80    9.95
   1  21  -3   14.38    5.39
   0  21  -3   35.47   15.97
  -1  21  -3   19.70   13.75
  -2  21  -3    6.17    6.89
  -3  21  -3    5.69   10.20
   2  22  -3    0.43    8.75
 -19   0   4   15.75    9.89
 -18   0   4   50.15   15.37
 -17   0   4   10.04    8.74
 -16   0   4    4.15    3.88
 -15   0   4   49.61   13.98
 -14   0   4   23.40    9.45
 -13   0   4   23.37    9.35
 -12   0   4  136.01   21.26
 -11   0   4  161.64   22.47
 -10   0   4   36.23   10.89
  -9   0   4   11.71    6.93
  -8   0   4  760.44   44.28
  -7   0   4   88.13   15.19
  -6   0   4  548.71   36.10
  -5   0   4  197.71   21.23
  -4   0   4   17.51    6.97
  -3   0   4  216.04   21.68
  -2   0   4  438.22   29.64
  -1   0   4 2408.37   69.47
   0   0   4  132.96   16.44
   1   0   4 1008.30   44.07
  -1   0  -4 1025.29   48.30
  -1   0  -4  979.94   39.18
  -2   0  -4   24.82    6.80
  -2   0  -4   16.28    7.40
   2   0   4   22.65    6.96
  -3   0  -4   39.13    8.21
  -3   0  -4   28.81    8.71
  -4   0  -4    4.08    4.17
  -5   0  -4  792.10   37.49
  -6   0  -4  457.25   29.85
  -7   0  -4  497.22   32.40
  -8   0  -4   78.34   14.31
  -9   0  -4  214.80   25.20
 -10   0  -4    9.84    8.45
 -11   0  -4  125.64   21.03
 -12   0  -4  190.04   27.19
 -13   0  -4   24.12   12.36
 -14   0  -4  100.27   22.71
 -15   0  -4   17.19    8.11
 -16   0  -4   67.93   20.35
 -17   0  -4   21.50   12.22
 -19  -1   4   15.36    9.14
 -18   1   4   14.01    7.98
 -18  -1   4   11.61    8.40
 -17   1   4   40.52   12.87
 -17  -1   4   44.32   14.37
 -16   1   4   10.66    8.07
 -16  -1   4   22.87   10.13
 -15   1   4   16.66    7.44
 -15  -1   4   13.09    8.84
 -14   1   4   80.85   16.74
 -14  -1   4   91.24   18.13
 -13   1   4   42.91   12.31
 -13  -1   4   39.46   11.46
 -12   1   4   40.17   11.28
 -12  -1   4   27.16    8.79
 -11   1   4   63.96   13.92
 -11  -1   4   35.03   11.13
 -10   1   4   88.65   16.12
 -10  -1   4   87.14   15.79
  -9   1   4  247.91   26.30
  -9  -1   4  314.89   29.48
  -8   1   4   10.26    6.46
  -8  -1   4    8.94    4.96
  -7   1   4  739.48   42.91
  -7  -1   4  729.19   42.37
  -6  -1   4  179.42   20.47
  -6   1   4  156.20   19.87
  -5  -1   4   10.69    5.07
  -5   1   4    2.42    3.68
  -4  -1   4  127.98   16.50
  -4   1   4  122.80   16.74
  -3   1   4    5.95    2.18
  -3  -1   4   10.78    4.02
  -2   1   4  572.49   34.26
  -2  -1   4  603.92   35.59
  -1  -1   4  202.27   19.71
  -1   1   4  190.51   19.92
   0   1   4 1434.91   53.86
   0  -1   4 1447.77   52.50
   0   1  -4 1452.08   55.51
   1   1   4    5.40    3.96
   1  -1   4    3.73    1.07
  -1   1  -4   -1.01    3.58
  -1   1  -4    4.64    3.70
  -1  -1  -4    0.29    3.75
   2   1   4   96.04   14.25
   2  -1   4   85.39   12.81
  -2   1  -4   92.15   14.76
  -2  -1  -4  108.35   12.25
  -2   1  -4   99.20   12.78
   3  -1   4   30.71    8.07
  -3   1  -4   31.39    9.00
  -3   1  -4   26.82    6.79
  -3  -1  -4   37.71    7.56
  -4  -1  -4  219.93   18.21
  -4   1  -4  221.55   21.55
  -4   1  -4  220.41   19.93
  -5   1  -4  107.26   15.10
  -5  -1  -4  119.92   14.06
  -5   1  -4  111.89   14.58
   5   1   4  117.37   15.99
  -6   1  -4  326.26   26.34
  -6  -1  -4  386.68   26.14
  -6   1  -4  356.57   27.06
  -7   1  -4  490.62   33.35
  -7  -1  -4  471.54   31.08
  -8  -1  -4  109.25   16.79
  -8   1  -4   98.43   16.71
  -9   1  -4   12.08    6.60
  -9  -1  -4    8.80    7.11
 -10   1  -4  159.77   23.53
 -10  -1  -4  143.42   22.18
 -11  -1  -4   35.61   12.80
 -11   1  -4   23.58   11.60
 -12  -1  -4    8.75   10.08
 -12   1  -4   13.79    8.65
 -13  -1  -4  115.46   22.48
 -13   1  -4   87.37   20.33
 -14  -1  -4   41.24   15.00
 -14   1  -4   15.04   11.08
 -15  -1  -4   57.49   16.71
 -15   1  -4   36.56   15.15
 -16  -1  -4   30.13   15.11
 -16   1  -4   21.06   13.02
 -17   1  -4   41.36   16.53
 -17  -1  -4   34.26   16.29
 -19  -2   4   16.91   10.72
 -18   2   4   16.30    9.76
 -18  -2   4    8.02    5.07
 -17   2   4    7.62    5.50
 -17  -2   4   25.04   11.24
 -16   2   4   -2.29    2.03
 -16  -2   4   10.45    7.72
 -15   2   4   72.24   16.34
 -15  -2   4   84.64   18.32
 -14   2   4   21.83    8.96
 -14  -2   4   23.14    9.40
 -13   2   4   49.90   13.42
 -13  -2   4   58.06   14.57
 -12   2   4   85.58   16.68
 -12  -2   4   55.51   14.42
 -11   2   4    5.38    4.98
 -11  -2   4   10.37    6.97
 -10   2   4   51.71   12.21
 -10  -2   4   48.10   12.08
  -9   2   4   32.10   10.50
  -9  -2   4   33.00   10.32
  -8   2   4  431.94   33.98
  -8  -2   4  483.27   35.88
  -7   2   4    7.84    6.89
  -7  -2   4    8.09    5.57
  -6   2   4  287.66   27.29
  -6  -2   4  272.25   25.61
  -5  -2   4   87.87   14.37
  -5   2   4   84.94   14.44
  -4   2   4   14.60    6.63
  -4  -2   4   17.55    6.38
  -3   2   4   25.83    7.66
  -3  -2   4   36.00    8.91
  -2   2   4  214.35   21.15
  -2  -2   4  221.20   20.85
  -1  -2   4  528.47   31.98
   1   2  -4  454.47   30.90
  -1   2   4  445.74   30.85
   0   2   4   16.76    6.22
   0  -2   4   19.81    6.64
   0   2  -4   16.73    6.45
   1   2   4  225.77   21.65
   1  -2   4  242.44   21.17
  -1   2  -4  225.77   21.34
  -1  -2  -4  214.45   16.06
   2  -2   4    3.18    1.18
  -2  -2  -4    3.81    3.85
  -2   2  -4    7.24    4.89
  -2   2  -4    0.41    2.88
   3  -2   4   27.78    7.33
  -3   2  -4   17.12    5.88
  -3   2  -4   26.77    6.95
  -3  -2  -4   28.04    5.92
  -4   2  -4   10.35    4.61
  -4   2  -4    5.74    3.85
  -4  -2  -4    2.61    2.45
  -5   2  -4  262.16   22.72
  -5  -2  -4  282.58   20.33
  -5   2  -4  298.25   24.78
   5   2   4  288.68   23.74
  -6   2  -4  213.86   21.01
  -6  -2  -4  263.60   21.54
  -6   2  -4  265.25   24.27
   6   2   4  284.54   24.92
  -7   2  -4   29.08    8.36
  -7   2  -4   37.61   10.63
  -7  -2  -4   45.15    9.99
  -8   2  -4   49.61   12.15
  -8  -2  -4   66.09   13.89
  -9   2  -4    6.99    5.51
  -9  -2  -4   10.74    5.72
 -10   2  -4    7.33    6.39
 -10  -2  -4   -1.18    5.03
 -11  -2  -4   24.48    9.33
 -11   2  -4   14.97   10.15
 -12  -2  -4  114.84   20.94
 -12   2  -4   98.38   19.36
 -13  -2  -4   46.60   13.91
 -13   2  -4   42.26   14.08
 -14  -2  -4   40.44   15.32
 -14   2  -4   13.77   10.47
 -15   2  -4    3.68    7.29
 -15  -2  -4    5.82    9.67
 -16   2  -4   22.28   13.11
 -17   2  -4    3.01    8.73
 -19  -3   4    5.07    6.25
 -18  -3   4   43.21   14.93
 -17   3   4    4.76    6.08
 -17  -3   4    4.97    5.91
 -16   3   4   39.75   13.11
 -16  -3   4   43.33   13.93
 -15   3   4   -1.34    2.09
 -15  -3   4   13.14    8.05
 -14   3   4   84.18   16.96
 -14  -3   4  106.02   20.35
 -13   3   4  106.16   19.24
 -13  -3   4  120.79   20.95
 -12   3   4   64.93   14.59
 -12  -3   4   57.23   13.85
 -11   3   4   77.69   16.02
 -11  -3   4   54.83   13.34
 -10   3   4  105.81   17.70
 -10  -3   4   88.28   16.65
  -9   3   4   19.89    8.44
  -9  -3   4   30.82    9.30
  -8   3   4  124.18   18.91
  -8  -3   4  119.48   18.64
  -7   3   4  305.80   28.15
  -7  -3   4  324.12   28.53
  -6   3   4   18.05    6.75
  -6  -3   4   24.95    9.07
  -5   3   4  102.21   15.61
   5  -3  -4  135.73   17.20
  -5  -3   4  124.68   16.91
  -4   3   4   39.70    9.65
  -4  -3   4   39.70    9.54
  -3   3   4  217.59   22.00
  -3  -3   4  223.10   21.42
  -2   3   4    3.16    3.01
  -2  -3   4    6.95    4.62
  -1  -3   4  249.58   22.81
  -1   3   4  251.97   22.96
   1   3  -4  245.53   22.51
   0   3   4  170.61   19.16
   0  -3   4  180.46   18.88
   0   3  -4  181.79   18.89
   1  -3   4    0.01    0.96
  -1   3  -4    4.46    3.17
  -1  -3  -4    5.15    2.41
   2  -3   4    6.84    3.44
  -2   3  -4   11.12    5.19
  -2  -3  -4   14.85    4.21
  -2   3  -4    7.66    4.81
   3  -3   4    7.84    4.13
  -3  -3  -4    7.91    3.08
  -3   3  -4   10.55    3.67
  -3   3  -4    7.61    6.08
  -4   3  -4   88.66   13.15
  -4  -3  -4   90.77   10.67
  -4   3  -4   90.68   14.23
  -5  -3  -4    5.67    4.09
  -5   3  -4   -0.56    0.82
   5   3   4   -0.96    3.51
  -5   3  -4    1.64    2.61
  -6   3  -4  115.39   14.88
  -6  -3  -4  130.65   15.63
  -6   3  -4  120.14   17.46
   6   3   4  118.90   15.34
  -7   3  -4   59.32   12.17
  -7   3  -4   40.78    9.33
  -7  -3  -4   36.70    9.59
  -8   3  -4    7.97    4.42
  -8   3  -4   14.83    7.58
  -8  -3  -4   15.69    7.83
  -9   3  -4   15.26    8.89
  -9   3  -4    6.79    4.32
  -9  -3  -4   15.73    7.51
 -10   3  -4   14.79    8.75
 -10  -3  -4   18.39    9.66
 -11  -3  -4  101.23   19.20
 -11   3  -4  105.53   19.06
 -12  -3  -4    6.59    6.65
 -12   3  -4   15.32    9.39
 -13  -3  -4   71.36   17.35
 -13   3  -4   57.54   16.66
 -14  -3  -4   11.05    8.16
 -14   3  -4    3.82    5.89
 -15   3  -4    1.16    3.10
 -16   3  -4   30.76   13.55
 -17   3  -4    9.77   13.19
 -18  -4   4    7.06    6.81
 -17  -4   4   20.56   11.42
 -16   4   4   11.42    7.05
 -16  -4   4   20.09   10.47
 -15   4   4   11.33    6.69
 -15  -4   4   33.29   13.00
 -14   4   4   52.18   14.14
 -14  -4   4   64.67   16.93
 -13   4   4   74.33   16.31
 -13  -4   4   65.60   16.46
 -12   4   4  131.43   20.91
 -12  -4   4  113.70   20.04
 -11   4   4   39.30   11.76
 -11  -4   4   33.73   11.00
 -10   4   4   32.16   10.49
 -10  -4   4   45.70   12.44
  -9   4   4   80.31   14.92
  -9  -4   4   68.27   14.54
  -8   4   4   69.51   13.98
  -8  -4   4   77.10   14.73
  -7   4   4    6.42    2.96
  -7  -4   4    0.15    2.19
  -6  -4   4   93.45   15.09
  -6   4   4   75.84   13.73
   5  -4  -4  125.14   16.52
  -5   4   4  102.94   16.27
  -5  -4   4  103.81   15.62
  -4   4   4  185.78   20.96
   4  -4  -4  198.01   18.75
  -4  -4   4  167.03   19.09
  -3   4   4    4.22    1.97
  -3  -4   4    8.64    5.16
  -2  -4   4  289.65   24.01
  -2   4   4  268.91   24.57
  -1   4   4    2.07    1.01
  -1  -4   4    2.57    2.44
   0   4   4   29.00    8.48
   0  -4   4   30.37    7.60
   0   4  -4   32.65    7.90
  -1  -4  -4   48.55    5.66
   1  -4   4   58.83   10.35
  -1   4  -4   47.92    9.40
  -2   4  -4   75.53   12.79
  -2   4  -4   83.37   12.54
  -2  -4  -4   86.38    7.81
   2  -4   4   90.84   12.83
   3  -4   4  134.38   15.07
  -3   4  -4  147.80   15.87
  -3  -4  -4  132.21   11.05
  -3   4  -4  147.79   18.00
  -4   4  -4   13.02    6.38
  -4   4  -4   12.01    4.74
   4  -4   4   17.01    5.55
  -4  -4  -4   24.53    5.91
  -5   4  -4   81.99   11.91
  -5   4  -4  108.23   16.64
  -5  -4  -4   88.26   11.21
   5   4   4  101.77   12.55
  -6   4  -4    4.83    3.28
  -6  -4  -4   10.08    5.03
   6   4   4    6.56    4.57
  -6   4  -4    9.25    5.12
  -7   4  -4   14.74    5.52
   7   4   4   17.74    6.65
  -7  -4  -4   12.21    6.03
  -7   4  -4   12.05    5.25
  -8   4  -4   39.68    8.39
  -8   4  -4   54.99   12.78
  -8  -4  -4   47.66   12.35
  -9   4  -4    5.61    4.87
  -9   4  -4    4.99    3.67
  -9  -4  -4   14.19    7.07
 -10   4  -4   92.52   17.82
 -10  -4  -4   82.87   16.13
 -11   4  -4   11.55    9.32
 -11  -4  -4    5.89    5.83
 -12  -4  -4   96.40   18.79
 -12   4  -4   79.14   18.67
 -13   4  -4   18.41   11.56
 -14   4  -4    5.58    6.21
 -15   4  -4    9.86    7.57
 -16   4  -4   19.56   12.26
 -18  -5   4   33.06   14.71
 -17  -5   4    7.61    7.38
 -16  -5   4   18.70   10.23
 -16   5   4   10.48    6.69
 -15   5   4    0.58    2.98
 -15  -5   4   33.65   11.50
 -14   5   4    5.71    5.95
 -14  -5   4    9.88    6.53
 -13   5   4  128.09   20.71
 -13  -5   4  166.57   25.27
 -12   5   4   62.78   14.27
 -12  -5   4   56.63   14.54
 -11   5   4  123.83   19.58
 -11  -5   4  102.98   19.31
 -10   5   4   90.90   17.11
 -10  -5   4   84.03   16.59
  -9   5   4   25.08    9.13
  -9  -5   4   37.99   11.42
  -8   5   4    5.64    5.56
  -8  -5   4    1.93    3.32
  -7   5   4   88.38   14.96
  -7  -5   4   83.05   15.12
  -6   5   4  223.34   23.57
  -6  -5   4  195.79   22.72
  -5   5   4  365.02   29.71
   5  -5  -4  330.63   27.55
  -5  -5   4  381.19   30.40
  -4   5   4  164.46   19.92
  -4  -5   4  165.34   18.98
   4  -5  -4  150.70   16.49
  -3   5   4  437.11   31.87
  -3  -5   4  442.06   30.56
   3  -5  -4  429.89   25.21
  -2   5   4   20.46    7.01
   2  -5  -4   27.29    6.14
  -2  -5   4   22.42    6.26
  -1   5   4   56.64   10.68
   1  -5  -4   53.43    6.82
  -1  -5   4   60.00   10.96
   0  -5   4   84.46   12.84
   0   5  -4   94.58   13.28
   0  -5  -4   51.26    5.42
  -1  -5  -4   37.98    3.74
  -1   5  -4   41.91   10.06
   1  -5   4   45.52    9.35
  -1   5  -4   44.18    8.97
   2  -5   4  376.39   25.66
  -2   5  -4  382.11   25.31
  -2  -5  -4  357.83   13.40
  -2   5  -4  358.30   28.87
  -3   5  -4   16.89    6.90
   3  -5   4   13.36    5.40
  -3  -5  -4   12.77    3.36
  -3   5  -4   11.16    4.38
  -4  -5  -4  514.85   23.69
   4  -5   4  550.59   29.37
  -4   5  -4  534.17   28.37
  -4   5  -4  570.88   37.67
  -5   5  -4    0.23    4.12
   5   5   4    7.99    4.35
  -5  -5  -4    7.04    4.02
  -5   5  -4    3.82    2.92
  -6   5  -4  104.98   12.33
  -6  -5  -4  123.23   15.58
  -6   5  -4  132.51   18.77
   6   5   4  121.00   14.08
   7   5   4    7.37    4.30
  -7  -5  -4   12.42    6.00
  -7   5  -4    3.72    2.14
  -7   5  -4   12.73    7.66
  -8   5  -4    6.86    5.11
  -8   5  -4    5.42    3.14
  -8  -5  -4    6.84    6.09
  -9   5  -4  104.61   18.29
  -9  -5  -4  110.69   17.07
 -10   5  -4    5.91    6.48
 -11   5  -4  182.49   25.24
 -12   5  -4   36.39   13.67
 -13   5  -4   37.57   13.71
 -14   5  -4    4.53    6.92
 -15   5  -4    0.31    4.54
 -16   5  -4   12.46   11.52
 -17  -6   4    5.26    6.29
 -16  -6   4   22.79   11.69
 -15   6   4   16.81    8.16
 -15  -6   4    4.76    4.62
 -14   6   4   56.29   13.75
 -14  -6   4   82.96   19.21
 -13   6   4   10.20    5.69
 -13  -6   4    7.25    4.93
 -12   6   4  154.65   22.02
 -12  -6   4  147.41   23.48
 -11   6   4   22.16    8.42
 -11  -6   4   21.74    9.16
 -10   6   4  109.11   17.82
 -10  -6   4   96.69   18.33
  -9   6   4   -3.18    3.62
  -9  -6   4    4.83    5.90
  -8   6   4   23.47    8.81
  -8  -6   4   28.45   10.05
  -7   6   4  139.69   19.78
  -7  -6   4  190.50   23.29
  -6   6   4  159.33   19.70
  -6  -6   4  178.38   21.64
  -5   6   4  290.83   26.37
   5  -6  -4  268.76   23.52
  -5  -6   4  304.80   27.42
  -4   6   4  420.56   31.77
   4  -6  -4  327.61   22.90
  -4  -6   4  406.98   30.87
  -3   6   4  263.35   24.86
   3  -6  -4  237.81   17.27
  -3  -6   4  290.63   25.37
  -2   6   4  126.93   17.39
  -2  -6   4  137.70   17.01
   2  -6  -4  117.35   10.49
  -1  -6   4  201.57   19.74
   1  -6  -4  179.06    9.12
   0  -6   4    4.04    4.13
   0   6  -4    2.70    4.19
  -1   6  -4  478.31   35.08
   1  -6   4  483.40   30.25
  -1   6  -4  479.40   28.91
   2  -6   4   14.77    5.72
  -2   6  -4   26.64    8.26
  -2   6  -4   13.66    5.10
  -3   6  -4  798.45   34.88
   3  -6   4  809.35   36.39
  -3   6  -4  735.50   43.98
   4  -6   4   10.64    4.65
  -4   6  -4    9.80    5.66
  -4   6  -4   16.33    5.34
  -5   6  -4  344.71   21.26
  -5   6  -4  386.48   32.34
   5   6   4  345.15   19.74
   6   6   4    4.88    3.62
  -6   6  -4    4.42    3.45
  -6   6  -4   14.01    8.16
  -7   6  -4   68.72    8.82
   7   6   4   79.70   12.03
  -7   6  -4   94.40   17.01
  -8   6  -4   73.11   15.61
  -8   6  -4   34.17    6.60
  -9   6  -4   45.38   11.70
 -10   6  -4  204.37   26.73
 -11   6  -4   54.74   15.15
 -12   6  -4  109.93   22.54
 -13   6  -4   27.73   15.05
 -14   6  -4   18.88   12.02
 -15   6  -4    9.33   10.15
 -17  -7   4   14.76   10.85
 -16  -7   4   27.49   13.09
 -15  -7   4   52.61   16.21
 -14   7   4    2.87    3.26
 -14  -7   4   10.80    8.66
 -13   7   4   59.43   14.05
 -13  -7   4   58.96   16.11
 -12   7   4   16.19    7.58
 -12  -7   4    2.51    2.62
 -11   7   4  162.32   21.48
 -11  -7   4  121.93   21.06
 -10   7   4   17.12    7.29
 -10  -7   4    9.16    7.58
  -9   7   4  128.84   19.15
  -9  -7   4  112.41   19.48
  -8   7   4  137.79   19.18
  -8  -7   4  122.80   19.39
  -7   7   4   49.50   11.20
  -7  -7   4   42.55   11.53
  -6   7   4  202.13   22.66
  -6  -7   4  205.48   23.95
  -5   7   4  217.42   22.78
   5  -7  -4  208.08   19.88
  -5  -7   4  218.26   24.17
  -4   7   4  593.79   38.00
   4  -7  -4  548.84   28.91
  -4  -7   4  558.02   36.90
  -3   7   4  176.26   21.14
  -3  -7   4  207.94   21.97
   3  -7  -4  198.43   15.07
   2  -7  -4  315.68   14.83
  -2  -7   4  336.78   26.87
  -1  -7   4    2.69    2.60
   0  -7   4  222.21   20.80
  -1   7  -4   16.67    6.32
   1  -7   4   18.89    6.93
  -1   7  -4   14.22    6.46
   2  -7   4  918.83   40.90
  -2   7  -4  851.78   37.88
  -2   7  -4  813.43   47.85
  -3   7  -4   45.55   11.38
   3  -7   4   45.12    8.61
  -3   7  -4   47.10    8.45
   4  -7   4  556.99   28.45
  -4   7  -4  534.60   26.60
  -4   7  -4  495.92   37.78
   5   7   4   13.72    3.63
  -5   7  -4   32.67   12.66
  -5   7  -4   18.33    4.68
  -6   7  -4  112.18   10.85
  -6   7  -4  146.01   21.06
   6   7   4  125.43   12.45
   7   7   4   27.39    7.05
  -7   7  -4   25.11    9.46
  -7   7  -4   15.15    4.16
  -8   7  -4  127.37   20.42
  -9   7  -4  199.48   26.49
 -10   7  -4   44.13   14.27
 -11   7  -4   89.37   18.95
 -12   7  -4    9.81    7.86
 -13   7  -4   31.67   12.87
 -14   7  -4    6.69    8.19
 -15   7  -4   24.21   15.16
 -16  -8   4   34.85   15.61
 -15  -8   4   14.75   10.35
 -14  -8   4   10.39    6.01
 -13   8   4    6.92    4.00
 -13  -8   4    5.83    1.45
 -12   8   4   29.06    9.90
 -12  -8   4   24.63   10.30
 -11   8   4   29.80    9.81
 -11  -8   4   21.84    7.78
 -10   8   4  166.81   21.44
 -10  -8   4  135.44   21.76
  -9   8   4   23.73    8.43
  -9  -8   4   33.20   10.76
  -8   8   4   75.21   14.02
  -8  -8   4   82.45   16.45
  -7   8   4   17.17    7.40
  -7  -8   4   11.09    6.44
  -6   8   4  151.36   19.41
  -6  -8   4  161.00   21.79
  -5   8   4   30.90    8.49
   5  -8  -4   31.24    8.39
  -5  -8   4   29.74    9.55
  -4  -8   4  282.55   26.62
   4  -8  -4  248.04   19.13
  -3  -8   4  322.95   27.94
   3  -8  -4  292.48   17.65
   2  -8  -4    5.49    2.45
  -2  -8   4   23.91    8.80
  -1  -8   4  234.97   22.01
   0  -8   4   92.06   13.55
   1  -8   4  285.04   23.17
  -1   8  -4  273.71   22.46
  -1   8  -4  281.73   28.78
  -2   8  -4   45.75    8.96
   2  -8   4   48.70    9.94
  -2   8  -4   39.69   10.82
   3  -8   4  400.69   25.48
  -3   8  -4  362.25   23.18
  -3   8  -4  400.54   34.45
   4  -8   4   74.03   10.52
  -4   8  -4   57.74    8.76
  -4   8  -4   75.08   15.75
   5  -8   4  124.04   12.29
  -5   8  -4  125.89   19.64
  -5   8  -4   83.19    9.60
   5   8   4   61.48    6.85
  -6   8  -4   12.10    7.54
  -6   8  -4    3.69    1.94
   6   8   4   10.70    3.81
  -7   8  -4  240.12   27.88
  -8   8  -4   49.20   12.64
  -9   8  -4   99.18   19.61
 -10   8  -4   97.12   19.71
 -11   8  -4    5.72    8.71
 -12   8  -4   22.20   10.83
 -13   8  -4   20.74   12.88
 -14   8  -4   49.80   19.03
 -15   8  -4   13.30    8.69
 -16  -9   4   80.71   21.30
 -15  -9   4   21.60   11.00
 -14  -9   4   19.99   11.24
 -13   9   4    7.81    5.76
 -13  -9   4    3.63    6.02
 -12   9   4   38.65   11.62
 -12  -9   4   37.61   11.67
 -11   9   4   56.94   12.74
 -11  -9   4   52.50   14.62
 -10   9   4   -1.72    2.71
 -10  -9   4    4.10    4.39
  -9  -9   4  198.97   26.46
  -9   9   4  191.54   22.64
  -8   9   4    4.81    3.42
  -8  -9   4    8.23    6.85
  -7   9   4   49.79   11.40
  -7  -9   4   63.10   14.18
  -6   9   4   93.86   15.35
  -6  -9   4  115.78   18.95
   5  -9  -4  145.74   17.04
  -5  -9   4  128.87   19.64
   4  -9  -4   33.01    7.32
  -4  -9   4   47.63   11.90
   3  -9  -4   13.40    4.55
  -3  -9   4   11.56    6.20
  -2  -9   4  244.42   23.92
  -1  -9   4    7.53    5.22
   0  -9   4   39.38    9.67
   1  -9   4  179.67   18.78
  -1   9  -4  188.92   23.60
   2  -9   4  180.12   18.12
  -2   9  -4  182.56   23.87
  -3   9  -4   13.42    5.30
   3  -9   4   14.02    5.24
   4  -9   4    6.84    3.05
  -4   9  -4    9.10    6.91
   5  -9   4   82.98    9.83
  -5   9  -4   85.91   16.68
  -6   9  -4   -0.91    4.10
  -7   9  -4   10.97    5.46
  -8   9  -4  133.30   21.44
  -9   9  -4   62.92   15.69
 -10   9  -4   10.66    8.09
 -11   9  -4   17.10   10.03
 -12   9  -4    1.23    2.89
 -13   9  -4   16.73    9.30
 -14   9  -4   13.28   10.50
 -15 -10   4   76.95   20.34
 -14 -10   4   13.04   10.24
 -13 -10   4   34.40   11.97
 -12  10   4    9.98    6.12
 -12 -10   4   12.75    7.56
 -11  10   4   29.62    9.05
 -11 -10   4   31.38   11.07
 -10  10   4  200.34   23.49
 -10 -10   4  158.51   24.62
  -9  10   4   20.22    7.10
  -9 -10   4    5.96    3.14
  -8 -10   4  112.73   19.52
  -7 -10   4   56.54   14.41
  -6 -10   4   71.20   15.64
  -5 -10   4   70.88   14.70
   5 -10  -4   57.10   11.34
   4 -10  -4   85.04   11.50
  -4 -10   4   82.69   15.98
  -3 -10   4  149.41   19.97
   3 -10  -4   96.32   10.55
  -2 -10   4   10.58    6.92
  -1 -10   4   20.86    7.07
   0 -10   4  104.18   14.99
  -1  10  -4   50.30   13.79
   1 -10   4   31.34    8.25
   2 -10   4   65.05   11.03
  -2  10  -4   91.13   17.57
  -3  10  -4   49.66   12.50
   3 -10   4   49.30    9.75
   4 -10   4  109.76   12.41
  -4  10  -4  118.29   20.20
   5 -10   4   20.36    4.73
  -5  10  -4   17.25    7.75
  -6  10  -4   46.41   11.64
  -7  10  -4   47.31   14.15
  -8  10  -4   39.61   11.69
  -9  10  -4   29.30   11.88
 -10  10  -4   29.11   10.89
 -11  10  -4   48.50   15.31
 -12  10  -4   11.49    7.78
 -13  10  -4   19.19   10.24
 -14  10  -4   82.42   22.63
 -14 -11   4   24.77   11.42
 -13 -11   4   14.64    8.16
 -12 -11   4   54.30   16.49
 -11 -11   4   42.08   13.95
 -10 -11   4    4.30    2.54
  -9 -11   4  117.06   20.73
  -8 -11   4    1.37    4.99
  -7 -11   4   63.10   14.56
  -6 -11   4  126.81   21.05
  -5 -11   4  134.31   20.49
  -4 -11   4    6.76    5.97
   4 -11  -4    5.02    4.87
  -3 -11   4    5.88    5.42
  -2 -11   4  117.70   17.60
  -1 -11   4   16.63    6.46
   0  11  -4   18.78    8.69
   0 -11   4   25.16    7.84
   1 -11   4  312.38   25.37
  -1  11  -4  372.13   36.11
   2 -11   4   59.09   10.41
  -2  11  -4   84.60   17.84
  -3  11  -4    6.23    6.47
   3 -11   4    2.38    2.45
   4 -11   4    5.09    2.25
  -4  11  -4   15.73   11.07
   5 -11   4   50.82    7.51
  -5  11  -4   74.66   17.52
  -6  11  -4   32.23   11.19
  -7  11  -4   29.53   11.87
  -8  11  -4  156.20   24.37
  -9  11  -4   59.98   16.22
 -10  11  -4   13.72    9.81
 -11  11  -4   -1.63    3.28
 -12  11  -4   26.47   12.15
 -13  11  -4   28.86   13.89
 -14 -12   4   16.15   11.19
 -13 -12   4   31.38   13.18
 -12 -12   4    8.12    9.80
 -11 -12   4    4.73    6.36
 -10 -12   4  100.80   21.13
  -9 -12   4   25.35    9.57
  -8 -12   4   65.42   16.17
  -7 -12   4    1.00    2.53
  -6 -12   4   46.86   12.48
  -5 -12   4    1.89    4.81
  -4 -12   4  117.02   20.16
  -3 -12   4  273.09   28.31
  -2 -12   4    4.16    6.24
  -1 -12   4  110.76   17.32
   0  12  -4   32.16   11.44
   0 -12   4   37.16    9.64
   1 -12   4  124.74   15.82
  -1  12  -4  108.54   19.49
  -2  12  -4   16.39   10.71
   2 -12   4   16.61    5.16
   3 -12   4  155.56   16.72
  -3  12  -4  219.69   28.58
   4 -12   4   91.55   11.64
  -4  12  -4  103.72   20.03
  -5  12  -4   20.37   11.60
  -6  12  -4    9.33    3.74
  -7  12  -4  122.77   21.22
  -8  12  -4   71.66   17.73
  -9  12  -4   76.89   18.97
 -10  12  -4   50.59   15.30
 -11  12  -4   14.42   11.85
 -12  12  -4   21.42   11.55
 -13 -13   4    3.83    6.91
 -12 -13   4   11.76    9.77
 -11 -13   4   48.49   14.80
 -10 -13   4    7.44    5.80
  -9 -13   4  104.17   21.34
  -8 -13   4   60.73   15.80
  -7 -13   4   40.51   13.26
  -6 -13   4   17.57    8.15
  -5 -13   4  166.29   24.62
  -4 -13   4  225.08   26.84
  -3 -13   4   54.19   13.48
  -2 -13   4  246.99   26.58
  -1 -13   4   -0.67    3.67
   0 -13   4  127.47   17.39
   0  13  -4  148.63   24.67
  -1  13  -4   32.97   12.53
   1 -13   4   28.81    8.63
   2 -13   4  345.74   26.62
  -2  13  -4  445.14   41.60
   3 -13   4   29.55    7.68
  -3  13  -4   51.05   14.14
  -4  13  -4  207.91   29.09
  -5  13  -4   55.43   16.88
  -6  13  -4   71.27   16.12
  -7  13  -4    8.52    6.85
  -8  13  -4  179.05   27.38
  -9  13  -4  111.57   22.46
 -10  13  -4   20.44   11.16
 -11  13  -4   33.47   13.54
 -12  13  -4   24.46   12.60
 -12 -14   4   31.61   12.47
 -11 -14   4   16.15    8.06
 -10 -14   4   56.46   16.77
  -9 -14   4    2.08    4.02
  -8 -14   4   10.17    8.41
  -7 -14   4   37.03   12.51
  -6 -14   4   69.44   16.32
  -5 -14   4   82.29   17.43
  -4 -14   4  119.32   20.78
  -3 -14   4  129.97   20.69
  -2 -14   4   14.88    7.40
   1  14  -4  100.77   21.74
  -1 -14   4   70.08   14.40
   0  14  -4   27.25   11.31
   0 -14   4   29.05    9.23
   1 -14   4  168.19   19.96
  -1  14  -4  246.67   32.10
  -2  14  -4    7.89   10.10
   2 -14   4   11.09    6.32
  -3  14  -4  343.34   37.53
  -4  14  -4   22.50   13.14
  -5  14  -4  168.02   26.28
  -6  14  -4   16.19    8.78
  -7  14  -4  100.08   19.84
  -8  14  -4   41.10   14.47
  -9  14  -4   24.01   13.04
 -10  14  -4   89.49   21.02
 -11  14  -4   16.70    9.52
 -12 -15   4   26.53   11.05
 -11 -15   4   36.13   13.86
 -10 -15   4   -1.82    2.54
  -9 -15   4   18.61   10.93
  -8 -15   4   17.60    9.38
  -7 -15   4    0.34    4.79
  -6 -15   4   51.73   14.53
  -5 -15   4   69.63   16.63
  -4 -15   4   80.12   17.00
  -3 -15   4   90.58   18.03
  -2 -15   4   39.45   10.51
   1  15  -4    0.11    1.62
  -1 -15   4   -3.69    3.36
   0  15  -4   40.63   12.94
   0 -15   4   35.28   11.11
  -1  15  -4    6.75    6.89
   1 -15   4   14.74    7.25
  -2  15  -4  234.14   31.95
  -3  15  -4   37.33   15.66
  -4  15  -4  144.20   24.77
  -5  15  -4    4.54    4.42
  -6  15  -4   49.90   14.91
  -7  15  -4    9.25   10.25
  -8  15  -4   22.86   11.18
  -9  15  -4   76.21   20.16
 -10  15  -4   17.27   11.95
 -11 -16   4   21.69   11.70
 -10 -16   4   13.33    7.94
  -9 -16   4   20.31    9.19
  -8 -16   4    8.10    7.69
  -7 -16   4   -1.61    4.12
  -6 -16   4   28.22   10.53
  -5 -16   4   10.55    9.58
  -4 -16   4   90.52   18.41
  -3 -16   4    7.97    7.88
   2  16  -4   45.64   16.47
  -2 -16   4   38.28   13.17
  -1 -16   4    5.55    6.25
   1  16  -4    8.44    8.24
   0 -16   4    6.48    4.70
   0  16  -4    9.86    9.87
  -1  16  -4   40.28   14.91
  -2  16  -4   -0.07    9.44
  -3  16  -4   95.20   22.45
  -4  16  -4   22.26   12.30
  -5  16  -4   45.26   15.38
  -6  16  -4    4.49   10.92
  -7  16  -4   14.94    8.56
  -8  16  -4   20.85   11.93
  -9  16  -4    3.49    5.50
 -10 -17   4   30.28   12.60
  -9 -17   4   12.76   11.30
  -8 -17   4   12.71    8.69
  -7 -17   4   38.34   14.71
  -6 -17   4    5.97    6.89
  -5 -17   4   26.86   11.72
  -4 -17   4    0.20    4.47
  -3 -17   4   47.20   14.58
   2  17  -4   11.28   11.33
  -2 -17   4    3.10    6.52
   1  17  -4   19.62   13.29
  -1 -17   4   27.22   10.85
   0  17  -4   25.29   12.90
  -1  17  -4    3.31    2.71
  -2  17  -4   20.86   13.99
  -3  17  -4   15.82   10.33
  -4  17  -4   42.21   15.61
  -5  17  -4    5.75    8.01
  -6  17  -4   32.99   16.68
  -7  17  -4   15.64   10.02
  -8  17  -4   25.32   13.35
  -9 -18   4   12.07    8.27
  -8 -18   4   35.46   13.11
  -7 -18   4   18.91    9.77
  -6 -18   4   31.97   13.36
  -5 -18   4    3.04    5.57
  -4 -18   4    6.18    5.06
   3  18  -4   14.68   13.93
  -3 -18   4   24.58   11.78
   2  18  -4   69.61   20.92
  -2 -18   4   20.31   10.17
   1  18  -4   33.94   16.66
   0  18  -4    1.62    6.73
  -1  18  -4   43.49   15.57
  -2  18  -4   14.92   10.22
  -3  18  -4    5.24    5.10
  -4  18  -4    9.02    6.71
  -5  18  -4   25.65   12.80
  -6  18  -4   35.72   14.15
  -8 -19   4   10.65   11.06
  -7 -19   4   42.95   15.69
  -6 -19   4    8.57    6.34
  -5 -19   4   17.82    7.02
   4  19  -4   13.49   11.54
  -4 -19   4    7.07    6.78
   3  19  -4   31.68   13.03
   2  19  -4   51.45   19.12
   1  19  -4   25.98   15.87
   0  19  -4  131.56   27.03
  -1  19  -4   19.16   16.09
  -2  19  -4   26.41   10.72
  -3  19  -4   18.94   11.97
  -4  19  -4   42.07   15.83
  -7 -20   4    5.96    8.52
  -6 -20   4   22.84   12.43
  -5 -20   4   18.10    9.32
   4  20  -4   12.03   11.13
   3  20  -4   31.49   17.04
   2  20  -4   30.39   18.81
   1  20  -4  201.34   34.27
   0  20  -4   16.80   20.60
  -1  20  -4  140.34   28.09
  -2  20  -4   20.94   14.18
 -19   0   5   16.46    8.26
 -18   0   5   -5.81    6.44
 -17   0   5   -3.20    4.26
 -16   0   5    1.25    5.83
 -15   0   5    5.47    4.46
 -14   0   5    4.82    3.90
 -13   0   5   -0.65    2.09
 -12   0   5    0.38    4.74
 -11   0   5   13.16    7.59
 -10   0   5   16.81    8.49
  -9   0   5   13.34    8.01
  -8   0   5    8.78    6.44
  -7   0   5    2.47    4.47
  -6   0   5    2.10    2.38
  -5   0   5    3.24    5.74
  -4   0   5    6.65    4.84
  -3   0   5    2.17    3.60
  -2   0   5    3.81    3.40
  -1   0   5    2.57    1.97
   0   0   5    2.67    3.98
   1   0   5    0.45    2.20
  -1   0  -5    1.58    2.57
   2   0   5    2.07    3.57
  -2   0  -5    0.87    4.33
  -3   0  -5    0.90    4.57
  -4   0  -5    6.83    4.64
  -5   0  -5   -0.28    1.75
  -6   0  -5    2.61    3.29
  -7   0  -5    3.47    5.00
  -8   0  -5    3.79    5.81
  -9   0  -5    8.78    7.17
 -10   0  -5    3.52    4.26
 -11   0  -5    9.62    9.36
 -12   0  -5   12.10    8.11
 -13   0  -5    3.32    7.83
 -14   0  -5   -7.58    4.99
 -15   0  -5    6.59    6.30
 -16   0  -5   -3.66    5.49
 -17   0  -5   17.03   11.57
 -18   1   5   -7.51    5.94
 -18  -1   5    4.49    4.54
 -17   1   5    5.66    9.09
 -17  -1   5  -10.43    9.52
 -16   1   5   14.15    8.62
 -16  -1   5    6.92    2.09
 -15   1   5   14.29    7.60
 -15  -1   5   16.19    7.97
 -14   1   5    5.85    3.40
 -14  -1   5    4.69    4.58
 -13   1   5   28.52   10.79
 -13  -1   5    3.38    3.69
 -12   1   5    5.90    4.00
 -12  -1   5   -2.10    4.20
 -11   1   5    7.36    5.23
 -11  -1   5   13.88    7.34
 -10   1   5    7.08    5.81
 -10  -1   5    4.62    2.95
  -9   1   5   20.18    8.91
  -9  -1   5   26.73    9.29
  -8   1   5  104.36   17.94
  -8  -1   5   72.99   15.51
  -7   1   5   12.82    7.24
  -7  -1   5   17.71    6.02
  -6   1   5   26.20    9.89
  -6  -1   5   24.60    8.63
  -5  -1   5   88.16   16.18
  -5   1   5   86.83   15.64
  -4   1   5   56.24   13.11
  -4  -1   5   53.71   13.19
  -3   1   5   45.41   10.55
  -3  -1   5   54.53   11.47
  -2   1   5   28.23    8.51
  -2  -1   5   33.04    9.56
  -1   1   5   -1.74    1.23
  -1  -1   5    0.94    2.47
   0  -1   5   11.10    5.46
   0   1   5   10.24    6.54
   1   1   5    4.11    4.70
  -1  -1  -5    3.61    4.20
   1  -1   5   12.14    6.13
  -1   1  -5   13.32    6.21
   2   1   5  212.35   23.61
   2  -1   5  209.06   22.23
  -2  -1  -5  240.70   20.27
  -2   1  -5  225.59   21.32
   3  -1   5    9.89    5.43
  -3  -1  -5    8.00    4.94
  -3   1  -5   11.79    5.25
  -4  -1  -5  165.55   17.26
  -4   1  -5  168.01   18.74
  -5  -1  -5   23.44    6.59
  -5   1  -5   25.21    8.20
  -6  -1  -5    0.42    1.95
  -6   1  -5    3.61    4.20
  -7  -1  -5    8.10    5.97
  -7   1  -5    9.67    6.53
  -8  -1  -5   12.22    4.47
  -8   1  -5   22.06    9.49
  -9   1  -5   29.39   11.09
  -9  -1  -5   17.17    9.68
 -10   1  -5   35.32   11.65
 -10  -1  -5   12.21    5.53
 -11  -1  -5   16.66    8.37
 -11   1  -5    3.63    7.72
 -12  -1  -5   16.50    8.15
 -12   1  -5   35.97   12.82
 -13  -1  -5   13.30    9.67
 -13   1  -5    8.87    6.56
 -14  -1  -5    4.98    4.87
 -14   1  -5    7.93    9.21
 -15  -1  -5   -0.96    7.27
 -15   1  -5    7.40    2.41
 -16  -1  -5   10.36    4.62
 -16   1  -5    1.85    2.81
 -17  -1  -5   -0.92    2.44
 -18   2   5    6.39    6.35
 -18  -2   5    4.89    3.81
 -17   2   5   11.67    7.74
 -17  -2   5   15.39   10.12
 -16   2   5   21.48   10.04
 -16  -2   5    9.46    5.70
 -15   2   5   25.36   10.53
 -15  -2   5   35.13   12.01
 -14   2   5   51.01   14.30
 -14  -2   5   23.09    8.55
 -13   2   5   18.57    8.24
 -13  -2   5   15.22   10.63
 -12   2   5   19.64    8.12
 -12  -2   5    4.49    2.52
 -11   2   5   16.66    7.59
 -11  -2   5   10.35    6.89
 -10   2   5    3.66    3.74
 -10  -2   5   14.79    8.25
  -9   2   5   40.94   12.53
  -9  -2   5   36.22   10.59
  -8   2   5   59.77   14.28
  -8  -2   5   55.78   13.81
  -7   2   5  317.17   31.70
  -7  -2   5  306.56   30.14
  -6   2   5    8.79    4.37
  -6  -2   5   18.70    8.16
  -5   2   5   60.17   13.46
  -5  -2   5   59.46   12.75
  -4   2   5  256.27   26.87
  -4  -2   5  268.67   26.82
  -3   2   5   11.86    5.59
  -3  -2   5   17.33    7.73
  -2   2   5    8.70    4.66
  -2  -2   5    6.18    5.32
  -1   2   5   10.49    5.22
  -1  -2   5    4.82    2.88
   0  -2   5   90.40   14.81
   0   2   5   63.42   12.70
   1   2   5   52.00   11.93
   1  -2   5   66.32   12.85
  -1  -2  -5   59.87    9.73
  -1   2  -5   55.42   11.49
   2  -2   5    1.97    3.28
  -2  -2  -5   -1.19    3.52
  -2   2  -5    7.06    5.61
   3  -2   5  235.23   23.66
  -3  -2  -5  237.64   18.93
  -3   2  -5  272.45   25.03
  -4   2  -5    7.85    2.80
  -4  -2  -5    7.95    4.57
  -5  -2  -5    1.53    2.53
  -5   2  -5    8.97    6.42
  -6  -2  -5   45.98   10.44
  -6   2  -5   53.51   11.44
  -7  -2  -5    2.72    4.59
  -7   2  -5    8.57    5.89
  -8   2  -5   -1.50    3.63
  -8  -2  -5    1.94    4.98
  -9   2  -5   20.07    9.05
  -9  -2  -5    8.30    5.07
 -10   2  -5   31.44   11.59
 -10  -2  -5   23.48    8.41
 -11  -2  -5    7.42    7.25
 -11   2  -5   13.55    9.08
 -12  -2  -5    5.87    6.15
 -12   2  -5   -2.38    2.65
 -13  -2  -5   59.80   17.02
 -13   2  -5   24.83   11.73
 -14  -2  -5   24.00   12.63
 -14   2  -5    1.93    3.03
 -15  -2  -5    7.45    6.93
 -15   2  -5   -4.65    3.89
 -16  -2  -5   10.30    7.63
 -16   2  -5    6.51    5.70
 -17   3   5   11.00    6.80
 -17  -3   5   17.27    9.24
 -16   3   5    0.73    2.70
 -16  -3   5   -2.20    3.35
 -15   3   5   10.64    6.66
 -15  -3   5   34.95   13.45
 -14   3   5    6.05    4.95
 -14  -3   5   28.61   11.25
 -13   3   5   12.85    8.64
 -13  -3   5    4.81    5.45
 -12   3   5   40.55   12.63
 -12  -3   5   23.02    9.75
 -11   3   5    4.02    3.62
 -11  -3   5   13.55    7.85
 -10   3   5    7.79    6.88
 -10  -3   5   -0.82    2.75
  -9   3   5    9.87    8.38
  -9  -3   5   -0.34    4.02
  -8   3   5  111.38   19.40
  -8  -3   5  112.46   19.11
  -7   3   5   20.39    8.09
  -7  -3   5   28.33    9.36
  -6   3   5   -8.77    4.98
  -6  -3   5    5.11    3.72
  -5   3   5  158.48   21.48
  -5  -3   5  127.02   18.59
  -4   3   5    2.76    1.95
  -4  -3   5    1.22    1.32
  -3   3   5  100.49   16.94
  -3  -3   5   99.73   16.00
  -2   3   5    6.91    6.67
  -2  -3   5   -1.71    1.15
  -1   3   5   58.31   12.80
  -1  -3   5   63.44   12.47
   0   3   5   13.03    6.11
   0  -3   5   14.27    6.08
   1   3   5    3.63    4.38
   1  -3   5    1.80    1.76
  -1   3  -5    5.15    4.62
  -1  -3  -5    1.42    3.90
   2  -3   5  235.65   24.08
  -2  -3  -5  263.86   18.31
  -2   3  -5  283.20   26.11
   3  -3   5    5.98    4.62
  -3  -3  -5    5.01    3.57
  -3   3  -5    4.81    4.53
   4  -3   5   82.24   14.64
  -4  -3  -5   85.36   11.61
  -4   3  -5   91.80   15.09
  -5   3  -5   47.06   11.75
  -5  -3  -5   45.22    9.46
  -6  -3  -5   25.94    7.85
  -6   3  -5   44.34   11.29
  -7   3  -5   30.97   10.15
  -7  -3  -5   45.14   11.19
  -8   3  -5   13.02    7.25
  -8  -3  -5    3.19    4.22
  -9   3  -5   81.14   15.87
  -9  -3  -5   71.38   14.60
 -10   3  -5   13.24    7.71
 -10  -3  -5    9.85    6.73
 -11   3  -5    9.59    7.70
 -11  -3  -5   11.13    5.43
 -12  -3  -5   33.75   12.05
 -12   3  -5   23.49   10.90
 -13  -3  -5   43.87   14.97
 -13   3  -5   16.00   11.55
 -14  -3  -5   30.24   14.04
 -14   3  -5    6.80    6.39
 -15  -3  -5    4.28    2.44
 -15   3  -5   12.39    7.66
 -16   3  -5   26.60   13.16
 -17   4   5   -3.11    4.53
 -17  -4   5    1.67    3.97
 -16   4   5    0.55    0.15
 -16  -4   5   14.93    9.07
 -15   4   5   10.38    5.10
 -15  -4   5   12.44    9.06
 -14   4   5   19.10   10.32
 -14  -4   5    4.26    7.51
 -13   4   5    6.16    5.83
 -13  -4   5   -1.66    3.53
 -12   4   5   28.02   10.60
 -12  -4   5   24.55   10.44
 -11   4   5  148.28   22.37
 -11  -4   5  132.82   22.26
 -10   4   5    6.13    4.59
 -10  -4   5    1.66    5.53
  -9   4   5    5.35    3.96
  -9  -4   5   14.90    8.46
  -8   4   5   58.81   13.92
  -8  -4   5   63.85   14.59
  -7   4   5    5.20    3.61
  -7  -4   5   -0.76    3.18
  -6   4   5   10.71    6.04
  -6  -4   5   10.78    6.30
  -5   4   5   95.24   17.73
  -5  -4   5   97.71   16.22
  -4  -4   5  126.00   18.55
  -4   4   5  122.30   19.41
  -3   4   5    4.16    4.94
  -3  -4   5    1.33    1.96
  -2   4   5   44.58   11.43
  -2  -4   5   57.27   12.30
  -1   4   5  188.56   23.13
  -1  -4   5  184.91   21.13
   0   4   5   20.91    7.63
   0  -4   5   27.06    7.76
   1  -4   5   29.35    7.41
  -1  -4  -5   34.09    5.76
  -1   4  -5   37.14   10.33
   2  -4   5    5.52    4.32
  -2  -4  -5    6.07    3.10
  -2   4  -5    9.58    4.13
   3  -4   5   90.45   14.51
  -3  -4  -5  109.78   11.24
  -3   4  -5  112.53   17.38
  -4  -4  -5   11.93    4.30
   4  -4   5   12.12    5.74
  -4   4  -5   10.47    6.38
  -5   4  -5   92.29   16.03
  -5  -4  -5   79.70   12.32
  -6  -4  -5   37.06    9.58
  -6   4  -5   52.61   13.06
  -7   4  -5   47.60   11.84
  -7  -4  -5   40.64   10.79
  -8   4  -5    5.59    3.01
  -8  -4  -5   12.72    6.66
  -9   4  -5    3.94    2.90
  -9  -4  -5    8.51    4.78
 -10   4  -5   66.22   15.15
 -10  -4  -5   47.51   11.87
 -11   4  -5   20.62    9.92
 -11  -4  -5   19.98    8.48
 -12   4  -5   21.57   10.92
 -12  -4  -5   23.64   10.03
 -13  -4  -5    5.82    6.49
 -13   4  -5   19.80    9.96
 -14   4  -5    7.69    7.65
 -15   4  -5    9.71    8.50
 -17  -5   5   19.61   11.12
 -16   5   5    9.74    5.18
 -16  -5   5   41.33   15.02
 -15   5   5    7.07    4.69
 -15  -5   5   13.08    7.45
 -14   5   5   10.81    8.26
 -14  -5   5   28.30   11.31
 -13   5   5   30.94   11.00
 -13  -5   5   23.83   11.13
 -12   5   5   32.75   11.33
 -12  -5   5   10.78    7.90
 -11   5   5   12.69    8.43
 -11  -5   5   15.42    8.94
 -10   5   5   65.01   15.39
 -10  -5   5   60.38   14.61
  -9   5   5   13.13    7.98
  -9  -5   5    6.53    6.38
  -8   5   5    6.32    7.07
  -8  -5   5    2.56    2.50
  -7  -5   5  168.40   23.16
  -7   5   5  206.72   25.43
  -6  -5   5  110.17   17.81
  -6   5   5   90.97   16.62
  -5   5   5    1.06    4.10
   5  -5  -5   -0.42    3.12
  -5  -5   5    0.10    2.41
  -4   5   5   34.84   10.63
   4  -5  -5   47.03   10.57
  -4  -5   5   49.56   11.85
   3  -5  -5    5.16    3.01
  -3   5   5    1.97    4.19
  -3  -5   5    5.61    4.75
  -2   5   5   30.92   10.41
  -2  -5   5   20.02    6.91
  -1  -5   5  295.16   27.33
  -1   5   5  273.78   28.37
   0  -5   5  334.52   28.81
   0  -5  -5  308.19   16.35
   1  -5   5   17.76    7.49
  -1   5  -5   17.03    7.45
  -1  -5  -5   10.56    3.20
  -2   5  -5   27.44    8.89
  -2  -5  -5   19.05    3.81
   2  -5   5   20.94    7.56
  -3   5  -5   18.68    8.77
   3  -5   5   14.59    6.41
  -3  -5  -5   15.02    4.26
   4  -5   5   84.30   13.74
  -4  -5  -5   85.39   10.74
  -4   5  -5  117.05   18.45
  -5   5  -5   32.13   10.07
  -5  -5  -5   21.50    7.14
  -5   5  -5   28.55    8.04
  -6   5  -5  121.82   15.88
  -6  -5  -5  110.36   15.49
  -6   5  -5  158.05   22.01
   7   5   5   28.62    8.06
  -7  -5  -5   31.84    9.06
  -7   5  -5   21.09    6.89
  -7   5  -5   28.64    9.42
  -8  -5  -5    8.97    5.11
  -8   5  -5   19.43    9.05
  -9  -5  -5   12.03    7.34
  -9   5  -5   15.57    6.85
 -10  -5  -5   70.99   14.83
 -10   5  -5   53.54   15.39
 -11  -5  -5    5.34    5.07
 -11   5  -5    9.66    7.40
 -12   5  -5   13.57    9.72
 -13   5  -5   19.29    9.77
 -14   5  -5    5.78    7.43
 -15   5  -5   16.32    9.09
 -16  -6   5   15.98   12.47
 -15   6   5   23.13   10.39
 -15  -6   5   30.78   13.84
 -14   6   5    9.26    7.55
 -14  -6   5   21.75   10.27
 -13   6   5    1.98    4.74
 -13  -6   5    2.01    4.00
 -12   6   5   67.31   15.42
 -12  -6   5   42.83   12.75
 -11   6   5   42.39   11.62
 -11  -6   5   37.60   12.24
 -10   6   5   31.06   10.34
 -10  -6   5   24.44    8.04
  -9   6   5    3.11    2.96
  -9  -6   5   13.34    8.02
  -8   6   5    4.16    4.95
  -8  -6   5    3.11    2.00
  -7   6   5  109.02   18.26
  -7  -6   5   91.17   17.10
  -6   6   5   24.91    8.72
  -6  -6   5   22.49    7.96
  -5   6   5  181.41   23.77
  -5  -6   5  203.63   23.99
   5  -6  -5  193.29   21.22
  -4   6   5    2.12    5.78
   4  -6  -5    6.35    3.98
  -4  -6   5   11.18    6.14
  -3   6   5   40.38   11.79
   3  -6  -5   35.30    7.92
  -3  -6   5   43.17   10.47
  -2   6   5   21.49    8.44
   2  -6  -5   19.53    5.81
  -2  -6   5   21.56    6.27
   1  -6  -5   19.51    4.78
  -1  -6   5   35.54    9.42
   0  -6  -5   31.31    4.37
   0  -6  -5   22.26    3.39
   0  -6   5   38.19   10.13
  -1   6  -5   82.61   15.23
   1  -6   5   63.80   12.40
  -2   6  -5   66.04   14.94
   2  -6   5   43.71   10.42
  -3   6  -5   11.93    7.53
   3  -6   5    8.04    4.88
  -3  -6  -5    3.32    1.89
   4  -6   5   70.00   11.97
  -4  -6  -5   70.19    8.43
  -4   6  -5   71.58   12.02
  -4   6  -5   79.45   15.52
  -5  -6  -5   52.07    8.75
  -5   6  -5   48.11    9.69
  -6   6  -5    2.14    2.73
  -6  -6  -5    8.69    5.36
  -6   6  -5    7.91    4.26
  -7   6  -5    3.68    4.87
  -8   6  -5   17.71    9.34
  -9   6  -5   18.60    8.76
 -10   6  -5   11.64    8.06
 -11   6  -5   55.42   14.14
 -12   6  -5   29.43   12.79
 -13   6  -5    4.48    8.65
 -14   6  -5   14.28   11.53
 -15   6  -5    1.53    8.10
 -16  -7   5   33.31   13.99
 -15  -7   5   13.41    9.15
 -14   7   5   12.96    7.80
 -14  -7   5   14.86    9.71
 -13   7   5   38.53   11.62
 -13  -7   5   25.31   10.10
 -12   7   5   12.43    7.87
 -12  -7   5   -1.01    4.54
 -11   7   5    6.83    5.68
 -11  -7   5    5.71    5.29
 -10   7   5    8.17    5.99
 -10  -7   5    3.32    5.34
  -9   7   5   63.20   14.75
  -9  -7   5   62.65   16.07
  -8   7   5    7.86    6.47
  -8  -7   5   14.21    7.36
  -7   7   5   48.24   13.48
  -7  -7   5   35.57   11.82
  -6   7   5   84.47   16.27
  -6  -7   5   81.09   15.52
  -5   7   5    8.01    5.99
  -5  -7   5   13.40    8.48
   5  -7  -5    8.25    4.51
  -4   7   5   -2.41    5.03
  -4  -7   5    9.72    5.79
   4  -7  -5   10.45    4.80
  -3   7   5    4.72    2.22
  -3  -7   5    7.91    4.63
   3  -7  -5    7.66    3.85
  -2  -7   5   88.45   15.32
   2  -7  -5   68.55    7.55
  -1  -7   5    1.75    1.05
   0  -7   5   32.80    9.86
   1  -7   5  176.25   20.53
  -1   7  -5  186.89   24.41
  -2   7  -5    7.06    5.53
   2  -7   5    0.53    3.37
  -3   7  -5   19.32    7.48
   3  -7   5    6.18    3.79
   4  -7   5    6.76    3.82
  -4   7  -5   11.00    7.36
  -4   7  -5    6.51    3.83
   5  -7   5   59.14   10.64
  -5   7  -5   73.88   15.67
  -5   7  -5   55.65   10.11
  -6   7  -5    5.44    5.01
  -7   7  -5   41.40   12.52
  -8   7  -5  104.27   19.08
  -9   7  -5   13.15    6.23
 -10   7  -5    6.36    4.82
 -11   7  -5    1.40    3.87
 -12   7  -5   22.91   11.52
 -13   7  -5    4.52    7.21
 -14   7  -5    8.63    8.94
 -15  -8   5    6.24    7.07
 -14   8   5   10.05    7.46
 -14  -8   5   13.15    8.89
 -13   8   5   48.78   13.73
 -13  -8   5   61.70   18.34
 -12   8   5    7.42    5.47
 -12  -8   5    7.44    4.38
 -11   8   5   23.72    9.31
 -11  -8   5   16.97    8.96
 -10   8   5   74.81   15.90
 -10  -8   5   69.43   16.86
  -9   8   5   33.97   10.71
  -9  -8   5   23.28    9.23
  -8   8   5   36.21   11.09
  -8  -8   5   46.49   12.86
  -7   8   5    5.59    4.78
  -7  -8   5   -3.03    1.95
  -6   8   5    7.64    6.58
  -6  -8   5   10.24    6.86
  -5   8   5    3.43    2.31
  -5  -8   5    0.62    1.54
  -4   8   5    6.40    3.39
   4  -8  -5   11.12    5.38
  -4  -8   5    5.43    4.98
  -3  -8   5  260.80   26.71
   3  -8  -5  232.75   15.69
  -2  -8   5    9.76    4.48
   2  -8  -5    3.15    1.57
  -1  -8   5  107.07   16.80
   0  -8   5   73.77   14.15
   1  -8   5    6.67    5.10
  -1   8  -5   -1.08    3.81
   2  -8   5   77.39   12.95
  -2   8  -5  104.44   17.74
  -3   8  -5   12.92    7.77
   3  -8   5    9.15    4.90
   4  -8   5   77.25   12.38
  -4   8  -5  104.40   18.30
  -4   8  -5   64.89   11.24
   5  -8   5    0.99    3.29
  -5   8  -5    3.04    4.56
  -6   8  -5   -4.41    2.43
  -7   8  -5  119.58   20.36
  -8   8  -5   35.34   12.59
  -9   8  -5   50.08   14.50
 -10   8  -5    8.48    5.11
 -11   8  -5    5.16    5.16
 -12   8  -5   10.89    6.95
 -13   8  -5   15.30    8.83
 -14   8  -5   14.18   11.20
 -15  -9   5   10.99    9.57
 -14  -9   5   12.49    8.31
 -13   9   5   -0.42    2.96
 -13  -9   5   13.13   10.29
 -12   9   5    2.89    1.21
 -12  -9   5   28.16   11.42
 -11   9   5    6.68    3.73
 -11  -9   5    4.13    6.25
 -10   9   5   22.80    9.20
 -10  -9   5    3.48    4.90
  -9   9   5   96.40   17.83
  -9  -9   5   84.62   18.34
  -8   9   5   10.03    5.36
  -8  -9   5    7.98    4.47
  -7   9   5   -2.21    2.67
  -7  -9   5    7.13    4.50
  -6   9   5   23.75    9.06
  -6  -9   5   16.16    7.05
   5  -9  -5    5.23    5.03
  -5  -9   5    2.20    2.97
   4  -9  -5   50.52    8.51
  -4  -9   5   60.87   14.27
  -3  -9   5   13.64    7.76
   3  -9  -5    3.37    3.49
  -2  -9   5  181.23   22.02
  -1  -9   5   37.69   10.54
   0  -9   5   -1.59    1.83
   1  -9   5  136.66   18.32
  -1   9  -5  141.25   22.69
   2  -9   5   21.87    8.13
  -2   9  -5   32.01   11.05
  -3   9  -5   -5.27    6.56
   3  -9   5    4.38    3.86
   4  -9   5   21.22    7.12
  -4   9  -5   34.06   11.67
   5  -9   5    1.94    2.96
  -5   9  -5    8.63    8.57
  -6   9  -5   32.80    9.92
  -7   9  -5   15.33   10.17
  -8   9  -5  114.75   21.69
  -9   9  -5    2.03    3.01
 -10   9  -5   12.41    7.98
 -11   9  -5    6.69    8.17
 -12   9  -5    9.69    9.69
 -13   9  -5    9.97   10.79
 -14 -10   5   16.69   10.73
 -13 -10   5   26.36   12.12
 -12  10   5    8.24    6.68
 -12 -10   5    4.98    4.36
 -11  10   5    2.36    2.46
 -11 -10   5    9.77    6.28
 -10  10   5   -0.30    1.53
 -10 -10   5    8.04    6.34
  -9  10   5    5.48    4.65
  -9 -10   5    3.73    4.43
  -8  10   5   -4.06    3.59
  -8 -10   5   -2.78    3.53
  -7 -10   5    4.41    5.04
  -6 -10   5   -2.13    3.88
  -5 -10   5    1.79    4.51
  -4 -10   5   10.24    5.75
  -3 -10   5    0.79    5.74
  -2 -10   5    7.60    6.49
  -1 -10   5    0.85    2.41
   0 -10   5    3.04    2.04
   0  10  -5   16.26    9.14
   1 -10   5    5.02    4.82
  -1  10  -5    3.25    4.00
   2 -10   5   13.53    6.46
  -2  10  -5   21.24    9.16
  -3  10  -5    1.03    2.95
   3 -10   5    8.97    5.94
   4 -10   5    0.83    2.39
  -4  10  -5   11.06    7.88
   5 -10   5    4.68    2.84
  -5  10  -5   -6.80    5.20
  -6  10  -5    5.64    5.60
  -7  10  -5    7.70    6.59
  -8  10  -5    7.84    3.38
  -9  10  -5   -4.58    3.02
 -10  10  -5   10.90    7.66
 -11  10  -5    4.99    4.34
 -12  10  -5    4.76    5.11
 -13 -11   5    1.41    0.81
 -12 -11   5   23.74   10.77
 -11  11   5   13.17    6.48
 -11 -11   5    7.05    6.39
 -10 -11   5    7.98    6.75
  -9 -11   5   17.49    9.52
  -8 -11   5   19.02   10.56
  -7 -11   5   16.53    9.20
  -6 -11   5    2.59    4.88
  -5 -11   5   -2.69    4.85
  -4 -11   5   45.51   12.55
  -3 -11   5    2.80    4.54
  -2 -11   5   28.99    9.04
  -1 -11   5    4.05    3.98
   0 -11   5   26.88    9.10
   0  11  -5   37.86   13.01
  -1  11  -5    6.41    6.43
   1 -11   5    3.37    1.87
   2 -11   5   10.96    5.80
  -2  11  -5    7.79    9.28
  -3  11  -5    5.37    7.34
   3 -11   5    5.53    5.25
   4 -11   5    9.50    4.49
  -4  11  -5   21.27    9.87
  -5  11  -5    8.13    7.69
  -6  11  -5   12.54    9.91
  -7  11  -5   10.61    8.60
  -8  11  -5   18.67    8.24
  -9  11  -5   -0.67    2.09
 -10  11  -5    9.61    7.46
 -11  11  -5    5.42    6.24
 -12  11  -5    8.94    7.55
 -13 -12   5   30.29   14.38
 -12 -12   5    7.83    5.14
 -11 -12   5   17.64    9.62
 -10 -12   5   46.95   15.74
  -9 -12   5   31.31   12.54
  -8 -12   5   13.21    7.09
  -7 -12   5    9.07    4.41
  -6 -12   5   11.91    7.99
  -5 -12   5    8.84    3.70
  -4 -12   5   -1.55    3.16
  -3 -12   5  115.57   18.92
  -2 -12   5    3.29    3.51
  -1 -12   5   81.50   15.06
   0 -12   5   24.82    9.47
   0  12  -5   38.06   11.06
  -1  12  -5   19.68    8.34
   1 -12   5   16.04    6.43
  -2  12  -5   30.39   11.37
   2 -12   5    5.62    3.96
   3 -12   5   14.62    6.04
  -3  12  -5   22.06   10.41
  -4  12  -5   48.32   14.61
  -5  12  -5   14.46    7.98
  -6  12  -5   32.40   14.07
  -7  12  -5   65.44   15.88
  -8  12  -5   14.26    9.68
  -9  12  -5   17.73    9.46
 -10  12  -5   20.06   10.95
 -11  12  -5    2.55    8.16
 -12 -13   5    2.83    0.89
 -11 -13   5    4.36    4.02
 -10 -13   5   -5.04    6.76
  -9 -13   5   61.17   17.41
  -8 -13   5   13.44   10.06
  -7 -13   5    6.66    6.13
  -6 -13   5   15.40    7.21
  -5 -13   5    8.96    7.44
  -4 -13   5   27.95    9.99
  -3 -13   5    5.20    6.12
  -2 -13   5  130.12   20.26
   1  13  -5   16.00    4.93
  -1 -13   5   10.48    7.16
   0  13  -5   17.58   11.00
   0 -13   5    9.40    6.13
   1 -13   5   55.10   11.98
  -1  13  -5   81.93   19.35
  -2  13  -5   11.93   11.26
   2 -13   5    6.54    4.64
  -3  13  -5   11.91    9.11
  -4  13  -5   12.30    8.54
  -5  13  -5   30.56   11.58
  -6  13  -5    6.91    7.17
  -7  13  -5    9.90    8.63
  -8  13  -5   70.41   17.67
  -9  13  -5    5.14    4.42
 -10  13  -5   -1.59    3.11
 -11 -14   5   -4.45    5.09
 -10 -14   5    7.88    7.90
  -9 -14   5   10.56    6.86
  -8 -14   5    5.63    6.41
  -7 -14   5    9.34    7.45
  -6 -14   5    7.63    6.04
  -5 -14   5   22.84    8.27
  -4 -14   5    6.26    4.35
  -3 -14   5   34.56   11.34
  -2 -14   5   25.22    9.49
   1  14  -5   10.76    8.79
  -1 -14   5    7.04    6.14
   0  14  -5   16.70   12.15
   0 -14   5    6.16    5.22
   1 -14   5   24.46    7.28
  -1  14  -5   34.66   12.56
  -2  14  -5   41.64   14.67
  -3  14  -5    8.55    6.76
  -4  14  -5   92.10   21.46
  -5  14  -5   34.44   11.45
  -6  14  -5   17.31    9.39
  -7  14  -5   -1.41    3.88
  -8  14  -5    2.27    6.84
  -9  14  -5   11.86    6.88
 -11 -15   5  -15.45    9.15
 -10 -15   5    4.08    5.98
  -9 -15   5    5.89    4.54
  -8 -15   5    0.66    3.90
  -7 -15   5   27.03   10.82
  -6 -15   5   34.24   12.15
  -5 -15   5    8.72    8.75
  -4 -15   5    5.69    2.50
  -3 -15   5    1.90    4.92
  -2 -15   5   -3.75    5.48
   1  15  -5   31.93   14.19
  -1 -15   5   33.82   10.07
   0  15  -5   76.86   19.44
   0 -15   5   43.46   11.54
  -1  15  -5   16.59    9.68
  -2  15  -5   22.99   12.05
  -3  15  -5   11.65   10.36
  -4  15  -5   40.47   14.55
  -5  15  -5   51.31   16.02
  -6  15  -5   27.33   12.18
  -7  15  -5    9.55    7.31
  -8  15  -5   15.74   10.67
 -10 -16   5    0.16    4.62
  -9 -16   5   -0.48    3.65
  -8 -16   5   14.80    8.37
  -7 -16   5    5.01    5.39
  -6 -16   5   18.33   12.76
  -5 -16   5   30.71   12.51
  -4 -16   5   23.03   10.58
  -3 -16   5    2.71    5.50
   2  16  -5   29.99   14.83
  -2 -16   5   24.06    8.90
  -1 -16   5   23.04    8.93
   1  16  -5   26.35   12.83
   0  16  -5   10.43   10.61
  -1  16  -5   28.46   12.48
  -2  16  -5    5.11    6.87
  -3  16  -5   21.19   10.77
  -4  16  -5   43.46   15.59
  -5  16  -5   45.84   16.56
  -6  16  -5  -13.52    6.87
  -7  16  -5    7.98    5.63
  -9 -17   5   -7.08    6.89
  -8 -17   5   21.90   11.38
  -7 -17   5   12.93    9.00
  -6 -17   5   14.51    8.27
  -5 -17   5   22.93   11.53
  -4 -17   5    8.03    5.44
   3  17  -5   13.14   11.20
  -3 -17   5    5.65    5.63
   2  17  -5    1.86    6.71
  -2 -17   5    2.66    2.35
   1  17  -5   59.61   19.81
   0  17  -5   23.89   15.15
  -1  17  -5   -5.36    2.59
  -2  17  -5   29.93   14.81
  -3  17  -5   10.90    7.57
  -4  17  -5   15.80    9.94
  -5  17  -5   -9.98    2.09
  -8 -18   5    1.95    5.05
  -7 -18   5   26.78   12.07
  -6 -18   5   11.47    9.94
  -5 -18   5    1.56    4.82
  -4 -18   5   32.65   12.40
   3  18  -5   26.67   14.38
   2  18  -5   19.17   14.72
   1  18  -5   16.39   13.30
   0  18  -5   13.62   10.45
  -1  18  -5   22.00    8.77
  -2  18  -5   12.35   12.14
  -3  18  -5   92.24   23.35
  -7 -19   5   11.92    9.29
  -6 -19   5   11.74    8.12
  -5 -19   5   19.45    9.75
 -17   0   6   26.47   11.83
 -16   0   6   23.07   11.06
 -15   0   6   22.46    9.88
 -14   0   6   -6.33    5.18
 -13   0   6   67.87   18.12
 -12   0   6   91.47   20.13
 -11   0   6  402.60   40.54
 -10   0   6   25.47   11.02
  -9   0   6   20.38    9.74
  -8   0   6   18.33    8.53
  -7   0   6   19.21    8.97
  -6   0   6   29.46   10.53
  -5   0   6  409.54   37.04
  -4   0   6  248.77   28.08
  -3   0   6   51.01   11.78
  -2   0   6   16.44    7.54
  -1   0   6   54.75   12.45
   0   0   6    1.66    1.21
  -1   0  -6    3.47    4.08
   1   0   6    9.81    7.48
   2   0   6  164.03   22.07
  -2   0  -6  168.99   19.53
  -3   0  -6  141.34   18.39
  -4   0  -6   15.43    6.91
  -5   0  -6   25.29    9.41
  -6   0  -6   39.51   11.09
  -7   0  -6   22.29    8.47
  -8   0  -6    8.46    5.72
  -9   0  -6   61.40   14.01
 -10   0  -6  103.57   19.73
 -11   0  -6   19.29    8.52
 -12   0  -6   15.51    8.30
 -13   0  -6   19.58    9.77
 -14   0  -6    7.63    7.03
 -15   0  -6    2.76    8.01
 -17   1   6   32.85   15.17
 -17  -1   6   47.51   16.19
 -16   1   6   46.47   15.17
 -16  -1   6   29.52   12.87
 -15   1   6    1.74    3.70
 -15  -1   6   15.47   10.05
 -14   1   6   21.02    8.89
 -14  -1   6   42.45   14.88
 -13   1   6    9.07    6.89
 -13  -1   6   -4.24    7.77
 -12   1   6  221.25   30.91
 -12  -1   6  229.90   31.57
 -11   1   6   31.39   12.48
 -11  -1   6    9.26    8.54
 -10   1   6  243.92   31.99
 -10  -1   6  261.35   32.54
  -9   1   6   41.39   13.66
  -9  -1   6   30.51   11.66
  -8   1   6    6.03    4.95
  -8  -1   6    5.25    5.14
  -7   1   6    7.05    5.81
  -7  -1   6   12.13    7.61
  -6   1   6   72.81   15.86
  -6  -1   6   87.13   17.88
  -5   1   6  366.97   35.27
  -5  -1   6  395.90   36.37
  -4   1   6  133.04   21.41
  -4  -1   6  113.61   19.45
  -3   1   6  302.36   30.82
  -3  -1   6  302.11   30.26
  -2   1   6    1.86    0.83
  -2  -1   6    0.34    5.36
  -1   1   6   11.76    3.18
  -1  -1   6   14.64    6.78
   0   1   6   13.68    6.60
   0  -1   6   21.92    8.57
   1   1   6  130.13   20.08
   1  -1   6  160.44   21.59
  -1  -1  -6  140.87   17.11
  -1   1  -6  158.54   19.53
   2   1   6  230.17   26.80
   2  -1   6  246.06   27.02
  -2  -1  -6  238.32   22.10
  -2   1  -6  225.90   23.56
   3  -1   6  152.58   20.78
  -3  -1  -6  158.71   18.76
  -3   1  -6  153.17   19.28
  -4  -1  -6  107.09   15.94
  -4   1  -6  100.31   16.18
  -5  -1  -6   14.63    7.42
  -5   1  -6   10.75    7.38
  -6  -1  -6   12.60    6.96
  -6   1  -6   11.94    7.81
  -7  -1  -6   19.88    8.68
  -7   1  -6   15.82    6.93
  -8  -1  -6  113.41   18.17
  -8   1  -6   80.00   15.28
  -9   1  -6   79.03   16.68
  -9  -1  -6   79.51   16.00
 -10   1  -6   72.91   16.30
 -10  -1  -6   72.28   16.27
 -11  -1  -6   21.24   10.54
 -11   1  -6   24.05   13.21
 -12  -1  -6   13.61    8.78
 -12   1  -6   15.38   10.05
 -13  -1  -6    3.23    9.25
 -13   1  -6    8.85    6.92
 -14  -1  -6   22.04   14.01
 -14   1  -6   15.02    9.69
 -15   1  -6   18.73   12.65
 -16   1  -6    6.50    9.93
 -17   2   6   20.90   11.44
 -16   2   6    3.44    6.47
 -16  -2   6   11.96    9.29
 -15   2   6   21.06   10.87
 -15  -2   6   24.82   11.32
 -14   2   6    9.82    8.40
 -14  -2   6   10.69    8.56
 -13   2   6   32.28   11.88
 -13  -2   6   32.15   13.10
 -12   2   6   14.66    7.68
 -12  -2   6   13.60    9.30
 -11   2   6  187.67   28.46
 -11  -2   6  195.56   28.36
 -10   2   6   55.38   15.37
 -10  -2   6   56.75   16.20
  -9   2   6   37.20   12.21
  -9  -2   6   21.43    8.97
  -8   2   6   67.87   16.16
  -8  -2   6   80.75   17.26
  -7   2   6   14.78    8.33
  -7  -2   6    5.23    6.51
  -6   2   6  129.34   21.33
  -6  -2   6  130.66   21.26
  -5  -2   6  105.73   19.37
  -5   2   6   96.61   18.28
  -4   2   6  524.17   40.87
  -4  -2   6  545.71   42.07
  -3   2   6   17.66    7.20
  -3  -2   6    4.09    2.63
  -2   2   6  102.88   17.94
  -2  -2   6  126.81   19.96
  -1   2   6    4.48    4.08
  -1  -2   6    3.32    3.12
   0   2   6   98.77   16.95
   0  -2   6   98.67   16.82
   1   2   6   49.61   13.30
   1  -2   6   47.79   11.72
  -1  -2  -6   53.08    9.55
  -1   2  -6   57.58   12.26
   2  -2   6  336.65   30.62
  -2  -2  -6  325.29   24.71
  -2   2  -6  316.16   28.50
   3  -2   6  307.52   30.03
  -3  -2  -6  324.48   24.92
  -3   2  -6  318.19   28.54
  -4   2  -6   45.73   12.35
  -4  -2  -6   33.67    8.01
  -5  -2  -6   41.37    9.74
  -5   2  -6   39.24   11.11
  -6  -2  -6   42.22   10.49
  -6   2  -6   73.33   15.22
  -7  -2  -6   81.90   14.65
  -7   2  -6   69.16   14.52
  -8   2  -6    5.02    5.00
  -8  -2  -6   20.72    9.44
  -9  -2  -6  193.12   24.95
  -9   2  -6  185.80   24.63
 -10   2  -6   42.30   12.48
 -10  -2  -6   33.07   12.01
 -11   2  -6   41.91   14.07
 -11  -2  -6   27.08    9.93
 -12  -2  -6   -4.27    3.10
 -12   2  -6    1.00    5.53
 -13  -2  -6   57.60   16.73
 -13   2  -6   40.67   15.11
 -14   2  -6   25.37   12.80
 -15   2  -6   17.36    8.66
 -17   3   6   15.27   10.36
 -16   3   6   16.35   10.62
 -16  -3   6   10.39    6.13
 -15   3   6    9.58    6.27
 -15  -3   6   11.33    8.55
 -14   3   6    7.67    7.12
 -14  -3   6   17.49    8.86
 -13   3   6   18.16    8.68
 -13  -3   6   10.24    8.31
 -12   3   6   43.50   13.71
 -12  -3   6   38.12   12.76
 -11   3   6   51.17   14.95
 -11  -3   6   42.75   13.31
 -10   3   6   55.45   15.01
 -10  -3   6   54.88   16.48
  -9   3   6  167.42   25.30
  -9  -3   6  178.71   26.49
  -8   3   6    3.92    5.76
  -8  -3   6   11.23    6.60
  -7   3   6   84.63   17.64
  -7  -3   6   70.27   16.44
  -6   3   6   50.22   12.54
  -6  -3   6   67.36   15.24
  -5   3   6  203.85   26.73
  -5  -3   6  228.67   28.28
  -4   3   6    6.29    6.33
  -4  -3   6    6.77    6.62
  -3   3   6  368.33   34.64
  -3  -3   6  363.70   34.16
  -2   3   6  106.62   18.43
  -2  -3   6  113.85   18.67
  -1   3   6  228.47   27.16
  -1  -3   6  266.93   27.90
   0   3   6    8.04    6.52
   0  -3   6   12.06    6.97
   0  -3  -6    2.79    1.81
   1  -3   6  440.90   35.75
  -1  -3  -6  442.31   27.11
  -1   3  -6  460.27   35.60
   2  -3   6   71.05   14.33
  -2  -3  -6  100.26   13.16
  -2   3  -6  108.74   16.93
   3  -3   6   92.23   16.05
  -3  -3  -6  102.16   13.48
  -3   3  -6   80.61   15.01
  -4  -3  -6  216.40   19.15
  -4   3  -6  227.63   25.70
  -5   3  -6   32.60   11.76
  -5  -3  -6   28.26    7.86
  -6  -3  -6   95.78   15.26
  -6   3  -6  117.06   19.25
  -7  -3  -6   94.12   16.92
  -7   3  -6  109.40   18.48
  -8  -3  -6  230.71   25.64
  -8   3  -6  238.71   28.04
  -9   3  -6   17.16   10.08
  -9  -3  -6   12.86    7.40
 -10   3  -6   92.55   19.11
 -10  -3  -6   85.47   17.99
 -11   3  -6   18.98    9.97
 -11  -3  -6    2.35    6.69
 -12   3  -6   62.08   16.73
 -13   3  -6    5.28    9.47
 -14   3  -6   64.69   19.98
 -15   3  -6   37.78   18.01
 -17   4   6   32.56   13.55
 -16   4   6    7.07    7.13
 -16  -4   6   11.86    7.82
 -15   4   6   47.47   15.05
 -15  -4   6   23.71   11.45
 -14   4   6    1.20    1.23
 -14  -4   6   13.72    8.50
 -13   4   6   16.84   10.43
 -13  -4   6   10.65    7.42
 -12   4   6   21.78    9.37
 -12  -4   6   18.12    9.88
 -11   4   6   53.02   15.12
 -11  -4   6   58.89   15.87
 -10   4   6  250.19   31.01
 -10  -4   6  272.05   33.11
  -9   4   6  103.75   20.07
  -9  -4   6   84.05   18.39
  -8   4   6  216.75   28.38
  -8  -4   6  242.42   30.63
  -7   4   6   44.65   12.75
  -7  -4   6   36.55   11.81
  -6  -4   6  117.14   20.40
  -6   4   6  100.00   18.43
  -5   4   6   -3.88    2.83
  -5  -4   6   11.06    7.70
  -4   4   6  406.25   36.90
  -4  -4   6  418.30   36.87
  -3   4   6  158.90   22.27
  -3  -4   6  191.21   25.33
  -2   4   6  417.50   36.39
  -2  -4   6  442.13   36.46
  -1   4   6   68.87   15.45
  -1  -4   6   90.92   16.70
   0   4   6  346.32   33.81
   0  -4   6  378.57   33.28
   0  -4  -6  361.60   23.09
  -1   4  -6   38.01   11.02
   1  -4   6   40.72   11.59
  -1  -4  -6   36.19    7.14
   2  -4   6  302.61   28.77
  -2  -4  -6  294.59   20.11
  -2   4  -6  309.77   30.80
   3  -4   6  211.57   24.39
  -3  -4  -6  210.33   16.84
  -3   4  -6  239.85   26.97
   4  -4   6   20.20    8.03
  -4  -4  -6    9.76    4.51
  -4   4  -6   17.69    8.35
  -5  -4  -6  229.60   20.65
  -5   4  -6  230.02   27.04
  -6  -4  -6   22.93    8.53
  -6   4  -6    7.66    5.39
  -7  -4  -6  322.59   28.31
  -7   4  -6  346.59   33.47
  -8   4  -6   61.62   15.43
  -8  -4  -6   40.41   10.51
  -9  -4  -6  176.83   23.72
  -9   4  -6  195.60   26.56
 -10   4  -6   -3.54    2.42
 -10  -4  -6    7.31    7.02
 -11   4  -6   11.18    5.97
 -12   4  -6   16.32    7.92
 -13   4  -6   48.41   17.11
 -14   4  -6   47.27   16.71
 -15   4  -6   48.18   17.24
 -16   5   6   25.99   12.36
 -15   5   6    8.71    5.95
 -15  -5   6   25.42   11.28
 -14   5   6   19.94    9.83
 -14  -5   6    8.48    6.59
 -13   5   6    5.42    5.26
 -13  -5   6    9.49    6.85
 -12   5   6   15.74    8.79
 -12  -5   6    4.52    7.71
 -11   5   6   30.49   11.30
 -11  -5   6   34.54   13.45
 -10   5   6   44.36   14.17
 -10  -5   6   79.04   19.18
  -9   5   6  111.84   20.60
  -9  -5   6  108.48   20.52
  -8   5   6  147.35   23.28
  -8  -5   6  162.30   24.96
  -7   5   6   37.92   12.16
  -7  -5   6   43.64   12.76
  -6   5   6   96.39   18.15
  -6  -5   6  112.94   19.80
  -5   5   6   19.82    8.58
  -5  -5   6   25.50    9.87
   4  -5  -6    8.85    6.50
  -4   5   6   10.05    8.14
  -4  -5   6   11.36    7.11
  -3  -5   6  143.72   21.28
  -3   5   6  107.54   18.68
  -2   5   6   51.46   13.85
  -2  -5   6   55.01   13.40
  -1   5   6  329.89   33.39
  -1  -5   6  328.84   31.46
   0  -5   6    8.33    7.93
   0  -5  -6    2.64    2.58
   1  -5   6  233.86   25.10
  -1  -5  -6  250.45   16.32
  -1   5  -6  293.20   30.34
   2  -5   6    2.27    1.77
  -2  -5  -6    0.29    1.10
  -2   5  -6    2.57    5.63
  -3   5  -6   14.61    7.10
  -3  -5  -6   27.72    5.98
   3  -5   6   20.99    8.02
   4  -5   6   68.37   13.53
  -4  -5  -6   61.18    9.87
  -4   5  -6   91.43   17.56
  -5   5  -6    8.93    8.15
  -5  -5  -6    8.16    4.81
  -6  -5  -6  169.10   18.53
  -6   5  -6  234.47   28.21
  -7  -5  -6   47.69   11.15
  -7   5  -6   48.52   13.17
  -8   5  -6  126.77   20.99
  -9   5  -6   20.11   10.00
 -10   5  -6   17.79   10.51
 -11   5  -6    9.63    7.58
 -12   5  -6   24.48   12.30
 -13   5  -6   25.70   13.11
 -14   5  -6   38.83   15.55
 -15   6   6   40.22   13.69
 -15  -6   6   53.55   17.24
 -14   6   6   50.50   15.29
 -14  -6   6   43.42   13.74
 -13   6   6   33.04   13.07
 -13  -6   6   34.82   14.70
 -12   6   6    5.27    7.36
 -12  -6   6    5.28    5.37
 -11   6   6   41.84   14.44
 -11  -6   6   49.31   15.46
 -10   6   6   25.36   10.83
 -10  -6   6   20.31    9.56
  -9   6   6  158.17   24.69
  -9  -6   6  135.09   23.14
  -8   6   6    2.97    1.41
  -8  -6   6   13.24    8.03
  -7   6   6  235.39   29.05
  -7  -6   6  250.37   30.04
  -6   6   6   16.25    6.62
  -6  -6   6    5.90    6.44
  -5   6   6   65.94   15.38
  -5  -6   6   51.49   13.18
  -4   6   6   -1.31    3.91
   4  -6  -6    5.70    5.99
  -4  -6   6    2.28    3.33
  -3   6   6    6.30    5.49
   3  -6  -6    4.67    5.18
  -3  -6   6    7.94    6.85
  -2   6   6  178.93   24.99
  -2  -6   6  226.36   27.12
   2  -6  -6  183.26   17.66
  -1  -6   6    6.66    6.32
   1  -6  -6   -1.68    1.95
   0  -6   6  281.37   28.87
   0  -6  -6  244.51   14.28
  -1   6  -6    6.16    6.66
   1  -6   6   15.44    8.01
  -1  -6  -6   12.13    2.81
   2  -6   6   13.38    6.10
  -2   6  -6   13.76    8.43
  -2  -6  -6    9.45    2.72
  -3   6  -6    6.89    5.48
   3  -6   6    7.52    5.10
  -3  -6  -6    6.25    2.87
   4  -6   6    5.41    4.61
  -4  -6  -6    4.11    3.18
  -4   6  -6   10.43   10.31
  -5   6  -6   97.06   18.18
  -6   6  -6   14.28    7.37
  -7   6  -6  100.57   17.81
  -8   6  -6   13.47    6.52
  -9   6  -6   21.06   10.29
 -10   6  -6    5.07    6.97
 -11   6  -6   13.61    7.31
 -12   6  -6   33.44   12.98
 -13   6  -6    6.91    7.80
 -14   6  -6   44.68   17.07
 -15   7   6   36.92   12.83
 -14   7   6   75.91   18.90
 -14  -7   6   82.38   20.74
 -13   7   6   18.22   10.03
 -13  -7   6    3.39    4.88
 -12   7   6   39.26   13.47
 -12  -7   6   42.33   14.53
 -11   7   6    9.33    6.15
 -11  -7   6    4.88    5.12
 -10   7   6  106.66   20.21
 -10  -7   6   98.99   20.98
  -9   7   6    5.18    7.59
  -9  -7   6   29.33   11.69
  -8   7   6  207.19   27.59
  -8  -7   6  232.75   30.40
  -7   7   6   43.44   12.31
  -7  -7   6   44.74   13.22
  -6   7   6   54.97   13.26
  -6  -7   6   56.56   14.18
  -5   7   6   11.05    7.44
  -5  -7   6   15.64    7.67
  -4   7   6   10.49    7.00
  -4  -7   6   17.49    6.71
  -3   7   6   57.14   14.25
  -3  -7   6   76.12   15.44
  -2  -7   6   21.76   10.08
  -1  -7   6  155.36   22.17
   1  -7  -6   61.13    6.67
   0  -7   6    9.10    7.10
  -1   7  -6   38.98   12.35
   1  -7   6   29.45   10.19
   2  -7   6    1.67    2.80
  -2   7  -6   -2.18    2.56
  -3   7  -6   35.83   12.47
   3  -7   6   16.14    6.40
   4  -7   6    5.25    4.55
  -4   7  -6   10.20    5.81
  -5   7  -6    3.59    2.02
  -6   7  -6   91.03   18.20
  -7   7  -6    7.74    7.54
  -8   7  -6   38.20   12.60
  -9   7  -6    8.24    7.99
 -10   7  -6   18.57    9.33
 -11   7  -6   13.75   10.85
 -12   7  -6   11.89    9.60
 -13   7  -6   29.44   14.79
 -14   8   6   12.18    7.39
 -14  -8   6   20.98   12.68
 -13   8   6   62.11   16.35
 -13  -8   6   60.90   17.52
 -12   8   6   13.76    8.78
 -12  -8   6    5.73    5.09
 -11   8   6   34.09   11.55
 -11  -8   6   25.22   10.95
 -10   8   6   10.02    8.15
 -10  -8   6   13.70    7.70
  -9   8   6   59.63   14.87
  -9  -8   6   98.01   19.84
  -8   8   6   29.46   10.35
  -8  -8   6   28.60   12.28
  -7   8   6   57.55   14.50
  -7  -8   6   79.91   17.48
  -6   8   6  101.66   19.46
  -6  -8   6   93.82   18.47
  -5   8   6    1.90    2.60
  -5  -8   6    1.34    4.40
  -4   8   6   13.91    7.05
  -4  -8   6    9.87    6.91
  -3  -8   6   76.22   15.77
  -2  -8   6   91.87   16.91
  -1  -8   6    3.10    5.95
   0  -8   6   90.88   16.61
   1  -8   6    8.78    4.29
  -1   8  -6   20.79   10.28
   2  -8   6   11.86    6.49
  -2   8  -6   24.15   10.29
  -3   8  -6   -6.26    4.50
   3  -8   6    3.97    2.69
   4  -8   6   74.90   13.80
  -4   8  -6   81.20   17.28
   5  -8   6   71.53   13.09
  -5   8  -6   84.73   17.89
  -6   8  -6    6.48    7.66
  -7   8  -6   39.64   13.20
  -8   8  -6   10.22    8.51
  -9   8  -6    1.91    4.45
 -10   8  -6   14.47   10.12
 -11   8  -6   46.99   15.85
 -12   8  -6   13.31   10.69
 -13   9   6   21.01   11.24
 -13  -9   6   21.52   10.27
 -12   9   6   64.15   16.44
 -12  -9   6   37.05   14.07
 -11   9   6   18.14    9.88
 -11  -9   6    6.03    3.84
 -10   9   6   24.81   10.93
 -10  -9   6   13.92    7.36
  -9   9   6    3.10    4.72
  -9  -9   6    5.35    3.23
  -8   9   6   32.94   12.35
  -8  -9   6   60.67   16.49
  -7   9   6  211.87   28.03
  -7  -9   6  246.06   31.16
  -6   9   6    2.47    2.62
  -6  -9   6   11.88    7.17
  -5  -9   6  194.37   26.98
  -4  -9   6   10.49    6.02
  -3  -9   6  147.53   22.09
  -2  -9   6   41.84   11.29
  -1  -9   6  312.16   31.32
   0  -9   6  199.90   25.48
   0   9  -6  196.19   27.90
   1  -9   6   39.20   11.26
  -1   9  -6   35.20   13.54
   2  -9   6  110.07   17.97
  -2   9  -6  106.71   19.70
   3  -9   6  132.31   19.04
  -3   9  -6  123.23   21.21
   4  -9   6   69.46   13.38
  -4   9  -6   74.88   17.70
   5  -9   6  131.21   17.36
  -5   9  -6  142.65   24.64
  -6   9  -6  130.59   23.37
  -7   9  -6    8.25    6.25
  -8   9  -6   35.13   12.85
  -9   9  -6   24.21    9.74
 -10   9  -6   87.46   21.80
 -11   9  -6    4.50    5.83
 -12   9  -6   92.77   22.84
 -13 -10   6   66.83   19.18
 -12  10   6   28.30   11.60
 -12 -10   6   22.17   11.76
 -11  10   6    4.11    2.66
 -11 -10   6   10.65    8.82
 -10  10   6    6.38    6.70
 -10 -10   6   13.37    9.83
  -9  10   6   15.77    6.47
  -9 -10   6   26.26   11.88
  -8  10   6   73.68   16.82
  -8 -10   6   90.29   20.64
  -7 -10   6   12.26    8.73
  -6 -10   6  390.68   39.02
  -5 -10   6   25.90   12.79
  -4 -10   6  198.59   26.67
  -3 -10   6   52.00   13.31
  -2 -10   6  243.42   28.44
  -1 -10   6   43.63   13.01
   0 -10   6  109.76   18.90
   0  10  -6  108.45   21.20
   1 -10   6  365.23   33.33
  -1  10  -6  409.60   41.09
   2 -10   6   78.65   15.43
  -2  10  -6   82.69   19.30
  -3  10  -6  120.92   23.26
   3 -10   6   90.52   15.71
   4 -10   6  330.66   28.20
  -4  10  -6  343.73   38.82
  -5  10  -6  161.71   27.37
  -6  10  -6   33.44   13.24
  -7  10  -6   79.03   19.38
  -8  10  -6   17.16   10.48
  -9  10  -6   66.18   18.27
 -10  10  -6    9.00    8.49
 -11  10  -6  180.44   31.53
 -12  11   6   47.11   14.12
 -12 -11   6   33.86   14.11
 -11  11   6    6.96    7.28
 -11 -11   6    0.76    5.26
 -10 -11   6    7.28    7.62
  -9 -11   6   11.22    8.47
  -8 -11   6   25.91   11.17
  -7 -11   6  222.82   30.39
  -6 -11   6   23.57   10.86
  -5 -11   6  188.23   27.02
  -4 -11   6   16.93    9.45
  -3 -11   6   81.42   17.25
  -2 -11   6   22.25    8.67
  -1 -11   6  172.08   23.35
   0 -11   6  130.30   20.57
   0  11  -6  120.50   23.96
  -1  11  -6   52.56   14.68
   1 -11   6   19.80    7.38
   2 -11   6   60.90   13.49
  -2  11  -6   75.12   18.13
   3 -11   6  125.09   18.01
  -3  11  -6  179.83   28.08
  -4  11  -6   55.65   16.38
  -5  11  -6  201.11   30.03
  -6  11  -6   89.94   20.92
  -7  11  -6    7.70    9.02
  -8  11  -6   29.59   12.64
  -9  11  -6    3.16    4.22
 -10  11  -6   94.78   22.71
 -12 -12   6   31.61   13.67
 -11 -12   6   18.13   10.53
 -10 -12   6    3.55    5.38
  -9 -12   6   64.41   18.34
  -8 -12   6   15.69   10.13
  -7 -12   6   19.06    7.91
  -6 -12   6  155.28   26.02
  -5 -12   6    3.75    5.52
  -4 -12   6   51.88   14.10
  -3 -12   6   60.26   15.08
  -2 -12   6  112.60   20.08
   1  12  -6    7.62    6.26
  -1 -12   6   15.05    9.11
   0  12  -6   74.75   19.14
   0 -12   6   57.49   13.36
  -1  12  -6  118.90   23.36
   1 -12   6  108.13   18.55
  -2  12  -6   20.45    8.12
   2 -12   6   19.47    8.87
  -3  12  -6   32.68   13.67
  -4  12  -6  180.25   29.42
  -5  12  -6   62.59   15.78
  -6  12  -6   -1.55    7.94
  -7  12  -6   34.39   12.89
  -8  12  -6   17.16   10.12
  -9  12  -6   35.52   13.78
 -11 -13   6   12.22    9.55
 -10 -13   6   46.74   16.62
  -9 -13   6    7.56    6.91
  -8 -13   6   86.90   20.85
  -7 -13   6   17.02    8.63
  -6 -13   6   22.69   10.99
  -5 -13   6   12.61    8.97
  -4 -13   6   24.35    9.57
  -3 -13   6   18.99    8.95
  -2 -13   6   45.77   13.31
  -1 -13   6   81.63   16.53
   1  13  -6   71.02   19.40
   0 -13   6   10.12    7.39
   0  13  -6   22.50   11.83
   1 -13   6   24.78    9.47
  -1  13  -6    4.32    7.39
  -2  13  -6    7.67    6.40
  -3  13  -6   22.39   12.42
  -4  13  -6   10.35    9.25
  -5  13  -6   21.51   10.87
  -6  13  -6   65.38   18.39
  -7  13  -6    9.73    7.51
  -8  13  -6   15.11    9.59
 -10 -14   6    8.96    8.90
  -9 -14   6   56.56   16.23
  -8 -14   6   11.24    7.56
  -7 -14   6   72.44   18.79
  -6 -14   6   11.05    7.28
  -5 -14   6    8.55    7.64
  -4 -14   6    8.08    8.01
  -3 -14   6   19.62    9.68
  -2 -14   6   55.47   15.55
  -1 -14   6    9.90    7.03
   1  14  -6   10.25   10.53
   0  14  -6   98.99   22.06
   0 -14   6   64.01   14.58
  -1  14  -6   25.38   12.83
  -2  14  -6   39.66   14.90
  -3  14  -6   12.40    9.51
  -4  14  -6   26.01   13.50
  -5  14  -6   49.38   16.58
  -6  14  -6    4.00    9.67
  -7  14  -6   31.91   11.59
  -9 -15   6   29.47   12.88
  -8 -15   6   73.32   19.17
  -7 -15   6   23.26   12.49
  -6 -15   6   17.70    9.98
  -5 -15   6   23.25   10.07
  -4 -15   6    6.34    5.28
  -3 -15   6   47.12   14.01
   2  15  -6    7.94   12.20
  -2 -15   6    4.98    5.26
  -1 -15   6  124.65   21.02
   1  15  -6  130.23   28.55
   0  15  -6   26.57   18.71
  -1  15  -6   50.74   17.65
  -2  15  -6   13.43   11.49
  -3  15  -6   38.78   14.73
  -4  15  -6   47.60   17.97
  -5  15  -6    3.25    6.51
  -6  15  -6   89.80   21.25
  -8 -16   6   34.51   14.94
  -7 -16   6   28.16   11.72
  -6 -16   6   21.62   12.01
  -5 -16   6   10.41    9.27
  -4 -16   6   38.17   12.63
  -3 -16   6   18.11   10.76
   2  16  -6  133.93   28.60
   1  16  -6   18.50   16.87
   0  16  -6  158.97   30.46
  -1  16  -6   20.50    9.22
  -2  16  -6   42.42   16.94
  -3  16  -6   35.19   15.33
  -4  16  -6   -0.74    7.09
  -8 -17   6   17.11    8.92
  -7 -17   6   30.11   11.93
  -6 -17   6    3.35    6.12
  -5 -17   6   49.61   16.27
  -4 -17   6   18.66   10.12
   3  17  -6  115.61   27.86
   2  17  -6   28.90   16.27
   1  17  -6  141.47   30.71
   0  17  -6   24.68   17.21
  -1  17  -6  137.27   27.97
  -7 -18   6    8.18    6.11
  -6 -18   6   16.23   10.40
  -5 -18   6    6.21    5.72
 -15   0   7    7.10    8.22
 -14   0   7    6.45    2.35
 -13   0   7    0.43    5.80
 -12   0   7    8.56    6.98
 -11   0   7   11.18    8.49
 -10   0   7   10.57   10.54
  -9   0   7    4.96    5.73
  -8   0   7    9.03    7.88
  -7   0   7    9.06    6.71
  -6   0   7    6.02    5.97
  -5   0   7    9.84    6.84
  -4   0   7   -4.99    5.46
  -3   0   7    0.37    4.33
  -2   0   7   -0.74    0.46
  -1   0   7    9.53    6.26
   0   0   7    0.68    1.59
   0   0  -7    2.08    5.49
   1   0   7    1.88    3.94
  -1   0  -7    4.79    5.75
   2   0   7    4.52    5.38
  -2   0  -7    2.38    2.31
  -3   0  -7   -0.25    4.55
  -4   0  -7    8.54    6.29
  -5   0  -7    7.94    5.86
  -6   0  -7   -0.34    4.49
  -7   0  -7   10.47    7.05
  -8   0  -7   -2.82    3.96
  -9   0  -7    0.45    1.18
 -10   0  -7   10.80    8.57
 -11   0  -7    2.55    5.65
 -12   0  -7   -8.11    4.65
 -15   1   7   21.79   10.59
 -15  -1   7   17.10   10.62
 -14   1   7    3.63    6.50
 -14  -1   7   12.96    8.91
 -13   1   7   17.92    9.41
 -13  -1   7    8.22    6.67
 -12   1   7    5.46    4.58
 -12  -1   7   -4.43    4.68
 -11   1   7    8.12    8.86
 -11  -1   7    3.40    3.79
 -10   1   7   11.54    8.74
 -10  -1   7    0.46    3.31
  -9   1   7   14.83    9.23
  -9  -1   7   35.09   14.04
  -8   1   7   56.68   16.13
  -8  -1   7   34.49   13.66
  -7   1   7   96.05   21.13
  -7  -1   7   85.81   19.59
  -6   1   7   16.14   10.12
  -6  -1   7    4.20    6.48
  -5   1   7   98.08   19.55
  -5  -1   7   73.94   17.48
  -4   1   7   12.84    7.96
  -4  -1   7   15.73    9.13
  -3   1   7   29.28   10.96
  -3  -1   7   17.60    7.94
  -2   1   7   19.90    7.83
  -2  -1   7   34.55   11.37
  -1   1   7    5.70    3.18
  -1  -1   7   -1.79    3.25
   0   1  -7   39.44   10.14
   0   1   7   38.94   12.81
   0  -1   7   36.52   10.73
   0  -1  -7   46.57   10.20
   1   1   7   40.78   12.78
   1  -1   7   34.84   11.30
  -1  -1  -7   38.99   10.15
  -1   1  -7   28.74    8.49
  -2   1  -7   20.94    8.52
   2  -1   7   17.75    8.76
  -2  -1  -7   17.08    7.72
  -3  -1  -7   65.04   13.17
  -3   1  -7   66.80   14.77
  -4   1  -7   11.97    6.43
  -4  -1  -7   14.28    7.44
  -5  -1  -7    2.28    4.65
  -5   1  -7   10.61    7.00
  -6  -1  -7   11.21    7.44
  -6   1  -7    8.47    6.57
  -7  -1  -7    4.31    3.43
  -7   1  -7    6.42    5.79
  -8  -1  -7   16.60    8.17
  -8   1  -7    7.94    6.98
  -9  -1  -7    1.00    4.18
  -9   1  -7   -1.95    4.83
 -10   1  -7    9.78    8.43
 -10  -1  -7   11.92    9.77
 -11   1  -7    4.88    3.65
 -12   1  -7    6.13   10.21
 -13   1  -7   12.12   10.21
 -16   2   7   14.77    7.86
 -15   2   7   -1.55    5.27
 -15  -2   7   -3.71    7.81
 -14   2   7   33.81   13.59
 -14  -2   7   30.14   13.52
 -13   2   7    2.08    5.14
 -13  -2   7   -1.40    5.77
 -12   2   7    7.67    6.62
 -12  -2   7   13.45    6.78
 -11   2   7   16.23    9.52
 -11  -2   7    0.12    1.35
 -10   2   7   -0.11    2.31
 -10  -2   7   19.71    9.06
  -9   2   7   36.05   12.73
  -9  -2   7   33.38   11.54
  -8   2   7   47.10   15.14
  -8  -2   7   52.63   15.98
  -7   2   7   15.84    9.35
  -7  -2   7   32.39   12.66
  -6   2   7   46.48   13.78
  -6  -2   7   33.55   12.87
  -5   2   7   29.72   11.19
  -5  -2   7   24.61    9.29
  -4   2   7   74.66   16.74
  -4  -2   7   78.94   17.07
  -3   2   7    9.84    7.11
  -3  -2   7    0.09    4.13
  -2   2   7    5.87    5.61
  -2  -2   7    2.70    4.53
  -1   2   7    3.31    5.11
  -1  -2   7   11.74    8.56
   0   2   7    1.80    4.65
   0  -2  -7    7.69    5.96
   0  -2   7   -1.77    4.05
   0   2  -7    2.36    2.87
  -1  -2  -7   14.39    5.13
   1   2   7   23.74    9.06
  -1   2  -7   24.48    9.19
   1  -2   7   19.12    7.67
   2  -2   7  172.22   24.41
  -2  -2  -7  159.62   19.01
  -2   2  -7  175.51   22.40
   3  -2   7   48.54   13.89
  -3   2  -7   55.53   13.93
  -3  -2  -7   64.05   12.32
  -4   2  -7   67.08   13.79
  -4  -2  -7   75.96   13.19
  -5  -2  -7   26.28    9.10
  -5   2  -7   22.40    8.24
  -6  -2  -7    9.77    6.84
  -6   2  -7    9.64    8.41
  -7  -2  -7    8.35    4.61
  -7   2  -7    9.12    6.96
  -8  -2  -7    5.33    5.44
  -8   2  -7   20.69    9.04
  -9   2  -7   57.94   15.87
  -9  -2  -7   64.13   16.39
 -10   2  -7   10.01    8.08
 -11   2  -7    6.22    6.44
 -12   2  -7   47.93   17.16
 -13   2  -7    7.38    7.04
 -14   2  -7    0.68    6.98
 -16   3   7   -6.81    5.98
 -15   3   7   33.92   13.47
 -14   3   7   -2.16    1.85
 -14  -3   7    5.17    5.94
 -13   3   7   10.54    7.55
 -13  -3   7    0.23    4.48
 -12   3   7   19.27    9.44
 -12  -3   7   21.49   11.06
 -11   3   7   15.87   10.09
 -11  -3   7   27.11   11.65
 -10   3   7   13.95    8.93
 -10  -3   7    1.42    2.07
  -9   3   7   19.87   10.50
  -9  -3   7    3.73    4.35
  -8   3   7  123.01   22.81
  -8  -3   7  126.86   23.40
  -7   3   7   22.47    9.56
  -7  -3   7   31.13   12.06
  -6   3   7    7.59    6.19
  -6  -3   7   13.47    8.21
  -5   3   7   95.34   19.81
  -5  -3   7   99.84   19.94
  -4   3   7   49.23   13.69
  -4  -3   7   72.36   16.61
  -3   3   7    5.97    1.79
  -3  -3   7   15.86    9.13
  -2   3   7   23.19    9.90
  -2  -3   7   10.68    5.23
  -1   3   7   48.81   13.06
  -1  -3   7   52.21   13.55
   0   3   7   29.67   10.87
   0  -3   7   25.29   10.09
   0   3  -7   23.01    9.43
   0  -3  -7   25.68    7.99
   1  -3   7   32.51   10.31
  -1   3  -7   35.47   10.83
  -1  -3  -7   37.38    8.87
  -2  -3  -7   87.13   13.03
   2  -3   7   66.45   15.24
  -2   3  -7   69.06   14.62
   3  -3   7   65.88   14.30
  -3  -3  -7   74.78   12.05
  -3   3  -7   65.56   14.79
  -4   3  -7   17.62    7.86
  -4  -3  -7    6.47    5.77
  -5   3  -7   -4.68    3.75
  -5  -3  -7    9.26    5.42
  -6  -3  -7   45.76   11.68
  -6   3  -7   43.72   12.29
  -7   3  -7   -0.07    2.41
  -8   3  -7    9.18    6.86
  -9   3  -7   16.60    9.54
 -10   3  -7   25.67   11.35
 -11   3  -7    6.37    7.08
 -12   3  -7    5.43    4.69
 -13   3  -7   16.79    9.16
 -14   3  -7   15.18    8.06
 -16   4   7   13.82    8.25
 -15   4   7   18.22   11.39
 -14   4   7   17.79   10.47
 -14  -4   7   12.16    8.01
 -13   4   7   11.82    7.40
 -13  -4   7    0.52    2.02
 -12   4   7   50.82   15.95
 -12  -4   7   23.86   12.11
 -11   4   7   22.62   10.91
 -11  -4   7   19.72   11.38
 -10   4   7   13.13    8.30
 -10  -4   7   31.74   12.23
  -9   4   7   23.11   10.89
  -9  -4   7   15.00    8.87
  -8   4   7   12.39    8.01
  -8  -4   7    6.70    7.13
  -7   4   7   40.75   14.97
  -7  -4   7   34.98   12.87
  -6   4   7   12.00    8.08
  -6  -4   7   25.77   10.73
  -5   4   7   67.38   16.21
  -5  -4   7   69.93   17.36
  -4   4   7   12.26    7.63
  -4  -4   7   16.63    6.32
  -3   4   7   -0.41    2.64
  -3  -4   7   -8.93    7.21
  -2   4   7   58.09   15.53
  -2  -4   7   71.01   15.80
  -1   4   7    7.83    6.13
  -1  -4   7   14.92    7.85
   0  -4   7   84.79   16.92
   0  -4  -7   91.19   12.99
   0   4  -7  119.06   20.80
   1  -4   7    9.17    5.99
  -1  -4  -7    6.45    1.96
  -1   4  -7    5.99    4.99
   2  -4   7   25.55    9.13
  -2   4  -7   24.33   11.83
  -2  -4  -7   25.70    7.61
   3  -4   7   12.13    6.21
  -3  -4  -7   14.93    6.44
  -3   4  -7   21.16   11.39
   4  -4   7   17.21    9.54
  -4  -4  -7   19.54    6.52
  -4   4  -7   36.49   12.39
  -5   4  -7   40.79   12.15
  -6   4  -7   10.21    6.73
  -7   4  -7   33.60   10.16
  -8   4  -7   13.75    7.73
  -9   4  -7   13.06    6.51
 -10   4  -7   23.53   11.11
 -11   4  -7   10.09    7.77
 -12   4  -7   -5.00    5.30
 -13   4  -7   -4.64    0.83
 -16   5   7    5.24    6.37
 -15   5   7    0.57    2.64
 -14   5   7   13.72   10.36
 -14  -5   7   -0.05    0.99
 -13   5   7   31.89   11.61
 -13  -5   7   32.53   13.96
 -12   5   7   -6.96    4.70
 -12  -5   7   17.49    9.22
 -11   5   7   50.67   15.98
 -11  -5   7   57.17   17.51
 -10   5   7   20.46    9.06
 -10  -5   7   22.15   10.94
  -9   5   7    5.67    5.99
  -9  -5   7   -5.36    5.29
  -8   5   7   -2.59    3.90
  -8  -5   7    5.17    6.33
  -7   5   7   80.37   18.26
  -7  -5   7  107.84   21.28
  -6   5   7   17.90   10.46
  -6  -5   7   12.04    6.48
  -5   5   7   32.86   10.76
  -5  -5   7   47.01   13.60
  -4   5   7   25.88   11.43
  -4  -5   7   33.10   11.61
  -3   5   7    2.25    4.18
  -3  -5   7    0.80    1.52
  -2   5   7    0.13    3.30
  -2  -5   7    8.99    5.98
  -1   5   7  162.14   25.03
  -1  -5   7  153.18   23.12
   1  -5  -7  137.38   15.22
   0  -5   7   80.13   17.38
   0  -5  -7   97.77   11.91
   0   5  -7  121.86   20.43
   1  -5   7    2.93    4.91
  -1   5  -7   10.59    8.09
  -1  -5  -7    4.34    4.04
   2  -5   7    1.36    4.64
  -2   5  -7   -3.27    1.62
   3  -5   7   -1.28    4.41
  -3   5  -7   -1.10    4.96
   4  -5   7    6.14    4.92
  -4   5  -7    7.82    7.71
  -5   5  -7   62.76   14.97
  -6   5  -7   85.38   18.00
  -7   5  -7    1.29    6.15
  -8   5  -7   11.13    8.70
  -9   5  -7   25.45   11.12
 -10   5  -7    3.01    3.51
 -11   5  -7   10.15    6.70
 -12   5  -7   24.67   10.90
 -13   5  -7    8.37    2.60
 -16   6   7   -8.47    6.56
 -15   6   7    5.04    5.28
 -14   6   7    5.87    7.99
 -13   6   7   18.43    9.73
 -13  -6   7   -4.03    4.60
 -12   6   7    8.38    5.22
 -12  -6   7   19.57   10.70
 -11   6   7   18.92    9.40
 -11  -6   7   27.09   12.50
 -10   6   7    3.11    7.06
 -10  -6   7   33.84   13.40
  -9   6   7    4.36    3.27
  -9  -6   7    4.63    5.65
  -8   6   7   -4.19    3.39
  -8  -6   7    0.07    2.64
  -7   6   7    0.57    6.08
  -7  -6   7    8.67    8.49
  -6   6   7   55.61   15.18
  -6  -6   7   63.28   15.47
  -5   6   7    2.86    2.38
  -5  -6   7   22.15    8.31
  -4   6   7    7.03    6.61
  -4  -6   7    6.34    6.09
  -3   6   7   44.49   13.32
  -3  -6   7   37.14   11.50
  -2   6   7   14.35    6.56
  -2  -6   7    7.85    4.78
  -1  -6   7    5.67    6.81
   0  -6   7   31.27   11.25
   0   6  -7   38.94   14.35
   1  -6   7   37.00   11.98
  -1   6  -7   57.10   15.67
   2  -6   7   -1.36    3.48
  -2   6  -7    7.48    4.90
   3  -6   7   10.58    6.57
  -3   6  -7   25.75   10.79
   4  -6   7  107.31   18.53
  -4   6  -7  117.25   21.57
  -5   6  -7   -3.30    3.24
  -6   6  -7   11.70    6.42
  -7   6  -7   -2.45    4.25
  -8   6  -7   20.86   11.06
  -9   6  -7    7.39    7.42
 -10   6  -7   34.87   13.10
 -11   6  -7   41.75   13.89
 -12   6  -7    1.08    6.61
 -15   7   7   -0.75    3.18
 -14   7   7   20.79   11.41
 -13   7   7    7.17    7.64
 -13  -7   7   16.21   10.99
 -12   7   7   25.53   11.99
 -12  -7   7   21.93   12.93
 -11   7   7    4.28    5.76
 -11  -7   7   15.43   12.90
 -10   7   7   28.01   12.67
 -10  -7   7   27.22   13.21
  -9   7   7   32.64   12.81
  -9  -7   7   30.25   11.48
  -8   7   7   -1.15    3.57
  -8  -7   7    4.91    6.58
  -7   7   7   54.06   13.95
  -7  -7   7   45.69   14.55
  -6   7   7   12.95    8.11
  -6  -7   7   -5.62    3.24
  -5   7   7   15.47    6.94
  -5  -7   7   -5.19    3.55
  -4   7   7   17.99    9.31
  -4  -7   7   16.97    6.82
  -3   7   7   79.45   18.18
  -3  -7   7   78.60   18.06
  -2  -7   7   56.15   14.30
  -1  -7   7   -2.72    3.86
   0   7  -7   68.14   16.59
   0  -7   7   60.63   15.37
   1  -7   7   12.04    7.73
  -1   7  -7    8.18    8.61
   2  -7   7    1.14    2.20
  -2   7  -7   13.28    6.22
   3  -7   7    9.97    4.47
  -3   7  -7   14.98    8.28
   4  -7   7   30.30   10.01
  -4   7  -7   61.05   15.68
  -5   7  -7   30.49   10.99
  -6   7  -7    1.08    5.81
  -7   7  -7   55.10   14.98
  -8   7  -7   11.05    7.05
  -9   7  -7    0.65    5.58
 -10   7  -7    5.02    5.48
 -11   7  -7   18.17   11.21
 -12   7  -7   15.52   11.61
 -14   8   7    6.40    5.06
 -13   8   7   27.35   12.22
 -12   8   7    0.80    3.71
 -12  -8   7    2.34    3.34
 -11   8   7    3.51    5.99
 -11  -8   7   13.52    8.36
 -10   8   7   90.40   19.68
 -10  -8   7  107.62   23.42
  -9   8   7   11.69    7.42
  -9  -8   7   16.96    9.29
  -8   8   7   21.28   10.20
  -8  -8   7   36.81   13.02
  -7   8   7   10.90    8.41
  -7  -8   7    9.42    8.57
  -6   8   7   12.22    6.24
  -6  -8   7   21.18    6.23
  -5   8   7    0.62    3.30
  -5  -8   7   -3.31    5.66
  -4  -8   7   67.73   16.67
  -3  -8   7  104.14   20.40
  -2  -8   7   78.20   17.83
  -1  -8   7    2.06    4.12
   0  -8   7   29.18   10.88
   0   8  -7   49.19   15.04
  -1   8  -7   31.06   11.01
   1  -8   7   29.31   10.21
   2  -8   7   34.68   11.31
  -2   8  -7   32.08   11.26
   3  -8   7   27.57    9.96
  -3   8  -7   41.97   12.32
   4  -8   7    4.86    5.77
  -4   8  -7   14.28    9.59
  -5   8  -7   25.82    9.14
  -6   8  -7   19.17   10.11
  -7   8  -7   18.28   11.10
  -8   8  -7   58.50   16.63
  -9   8  -7   22.66   11.45
 -10   8  -7   -3.12    3.83
 -11   8  -7    2.91   11.56
 -13   9   7    5.58    3.60
 -12   9   7    5.00    3.63
 -12  -9   7   11.07    9.51
 -11   9   7   39.38   14.34
 -11  -9   7   33.76   13.54
 -10   9   7    1.35    3.55
 -10  -9   7   16.97   10.71
  -9   9   7   53.75   14.94
  -9  -9   7   68.95   18.05
  -8   9   7   17.64    8.85
  -8  -9   7   -6.17    2.45
  -7   9   7   10.77    6.58
  -7  -9   7    0.15    5.40
  -6   9   7   21.94   10.30
  -6  -9   7    9.95    6.19
  -5  -9   7   16.85    8.18
  -4  -9   7   37.13   12.61
  -3  -9   7   61.48   16.04
  -2  -9   7   64.44   16.97
  -1  -9   7   39.39   13.06
   0  -9   7    3.92    5.99
   0   9  -7   17.98   11.42
  -1   9  -7   32.77   12.12
   1  -9   7   29.92    9.18
   2  -9   7   -0.87    4.15
  -2   9  -7    6.89    4.87
   3  -9   7   -1.49    1.43
  -3   9  -7    6.46   11.21
  -4   9  -7   79.42   19.26
  -5   9  -7    8.72    9.89
  -6   9  -7   23.06   11.19
  -7   9  -7   32.53   13.05
  -8   9  -7    9.71    8.78
  -9   9  -7    4.79    7.32
 -10   9  -7    0.89    2.00
 -13  10   7    3.74    6.71
 -12  10   7    8.98    8.85
 -11  10   7    6.56    7.69
 -11 -10   7    4.17    6.56
 -10  10   7   -0.24    1.86
 -10 -10   7   -1.88    4.53
  -9  10   7    8.12    7.06
  -9 -10   7    3.16    5.09
  -8  10   7    1.25    4.93
  -8 -10   7   -5.46    0.58
  -7 -10   7    5.61    6.42
  -6 -10   7   -4.80    4.79
  -5 -10   7    8.70    7.20
  -4 -10   7    7.52    9.28
  -3 -10   7    1.25    3.23
  -2 -10   7    7.44    6.35
  -1 -10   7   11.19    8.42
   0  10  -7    1.49    7.29
   0 -10   7    7.07    7.11
  -1  10  -7   20.69    8.75
   1 -10   7    6.72    5.94
   2 -10   7    5.49    5.64
  -2  10  -7   13.22   10.45
  -3  10  -7   -1.29    5.40
  -4  10  -7    8.38    9.72
  -5  10  -7   22.24   11.82
  -6  10  -7    5.14    5.55
  -7  10  -7    4.49    5.26
  -8  10  -7    3.37    7.19
  -9  10  -7   18.54   11.38
 -12  11   7    2.62    2.95
 -11  11   7   17.26    9.73
 -11 -11   7   19.73   11.55
 -10 -11   7    1.79    2.23
  -9 -11   7    5.83    5.52
  -8 -11   7    4.22    3.67
  -7 -11   7    5.97    3.78
  -6 -11   7   -0.68    1.34
  -5 -11   7    1.14    3.99
  -4 -11   7   -5.29    3.34
  -3 -11   7   22.88    9.84
  -2 -11   7    6.52    5.95
  -1 -11   7   10.92    4.12
   1  11  -7   17.05    9.04
   0 -11   7   -1.21    6.06
   0  11  -7   11.78   12.11
   1 -11   7    2.78    4.32
  -1  11  -7   25.68   12.71
  -2  11  -7   13.35    6.75
   2 -11   7    6.33    4.26
  -3  11  -7    6.11    8.72
  -4  11  -7    9.66    8.07
  -5  11  -7    9.41   10.21
  -6  11  -7    9.22    7.42
  -7  11  -7   25.64   12.03
  -8  11  -7   11.79    9.28
 -10 -12   7   13.80    8.48
  -9 -12   7    2.62    3.89
  -8 -12   7    3.14    5.82
  -7 -12   7    4.68    5.05
  -6 -12   7    6.97    8.64
  -5 -12   7   -0.67    3.45
  -4 -12   7   16.52    7.91
  -3 -12   7   22.44   11.03
  -2 -12   7   48.29   15.00
   1  12  -7   -7.08    3.37
  -1 -12   7    3.62    2.31
   0 -12   7   36.39   12.03
   0  12  -7   41.48   14.44
  -1  12  -7   31.30   12.42
  -2  12  -7    3.15    3.66
  -3  12  -7    7.80    9.05
  -4  12  -7   18.59   13.45
  -5  12  -7    6.58    7.16
  -6  12  -7   20.21    7.34
  -7  12  -7    5.02    4.57
  -9 -13   7   19.44   10.82
  -8 -13   7    7.30    5.46
  -7 -13   7   13.44   10.02
  -6 -13   7    1.77    5.29
  -5 -13   7    5.08    4.30
  -4 -13   7   13.76   10.19
  -3 -13   7   24.29    9.46
  -2 -13   7   29.21   11.71
   1  13  -7   22.23   13.34
  -1 -13   7    6.00    5.12
   0  13  -7   29.17   13.78
  -1  13  -7   28.63   13.51
  -2  13  -7   17.46   12.61
  -3  13  -7   11.11    6.90
  -4  13  -7   28.48   15.04
  -5  13  -7   16.56    8.39
  -6  13  -7    3.92    4.59
  -8 -14   7    5.41    2.55
  -7 -14   7   14.09   10.54
  -6 -14   7   49.22   14.64
  -5 -14   7    8.42    6.90
  -4 -14   7    1.92    6.78
  -3 -14   7   -0.33    3.22
  -2 -14   7   -0.63    2.72
   2  14  -7    2.13    3.66
   1  14  -7   12.79    6.50
   0  14  -7   23.49   12.39
  -1  14  -7   72.49   19.41
  -2  14  -7   21.01   10.89
  -3  14  -7    6.62    8.04
  -4  14  -7   12.39   11.71
  -8 -15   7   10.83   10.95
  -7 -15   7   53.24   17.17
  -6 -15   7   16.45   10.24
  -5 -15   7   23.97    9.57
  -4 -15   7    8.25    8.30
  -3 -15   7    7.66    5.04
   2  15  -7    5.29    9.32
   1  15  -7   37.02   15.88
   0  15  -7   51.37   18.25
  -1  15  -7    1.14    5.99
  -7 -16   7   12.63   10.51
  -6 -16   7   12.03    6.99
  -5 -16   7   22.95   11.13
  -4 -16   7    1.68    3.44
  -6 -17   7    4.69    7.17
 -13   0   8   51.17   17.44
 -12   0   8   49.27   16.29
 -11   0   8   42.29   15.32
 -10   0   8    3.33    5.63
  -9   0   8  137.95   26.56
  -8   0   8   15.01   10.41
  -7   0   8  180.96   29.43
  -6   0   8   33.71   11.97
  -5   0   8    7.58    5.12
  -4   0   8   63.01   15.89
  -3   0   8   43.05   14.38
  -2   0   8  363.92   38.56
  -1   0   8  202.27   28.82
   0   0   8  321.21   35.95
   0   0  -8  362.22   33.91
   1   0   8    3.36    2.21
  -1   0  -8    6.29    1.40
   2   0   8    0.68    5.90
  -2   0  -8    3.44    5.62
  -3   0  -8    6.73    7.34
  -4   0  -8  164.07   22.59
  -5   0  -8   52.46   13.51
  -6   0  -8  251.42   28.06
  -7   0  -8   42.63   12.08
 -13   1   8   16.05   11.41
 -13  -1   8    3.31    4.49
 -12   1   8   34.62   13.87
 -12  -1   8   31.27   14.11
 -11   1   8   12.71   10.28
 -11  -1   8   10.52    9.25
 -10   1   8   60.69   18.02
 -10  -1   8   57.84   17.67
  -9   1   8   26.37   13.17
  -9  -1   8   49.73   17.98
  -8   1   8  254.97   35.24
  -8  -1   8  270.82   35.99
  -7   1   8    4.22    2.52
  -7  -1   8   11.61    7.61
  -6   1   8   63.38   18.27
  -6  -1   8   34.61   12.22
  -5   1   8   35.21   13.44
  -5  -1   8   24.48   10.33
  -4   1   8   18.43    8.85
  -4  -1   8   12.85    7.99
  -3   1   8   44.15   14.01
  -3  -1   8   67.85   17.20
  -2   1   8  249.19   32.28
  -2  -1   8  226.54   30.39
  -1   1   8  280.57   33.80
  -1  -1   8  290.52   33.91
   0   1   8   34.79   11.71
   0  -1   8   47.68   14.24
   0   1  -8   46.97   14.35
   0  -1  -8   36.96   10.25
   1   1   8   96.84   20.08
   1  -1   8   87.11   19.05
  -1   1  -8   85.77   16.77
  -1  -1  -8   91.07   15.98
   2  -1   8   12.62    7.57
  -2  -1  -8   10.54    6.07
  -2   1  -8    6.85    5.67
  -3  -1  -8   64.31   13.32
  -3   1  -8   68.82   15.26
  -4   1  -8   11.95    7.53
  -4  -1  -8   17.70    8.28
  -5  -1  -8  268.71   28.09
  -5   1  -8  308.94   31.74
  -6   1  -8   82.30   17.55
  -7   1  -8   91.85   18.22
  -8   1  -8   13.60    9.04
  -9   1  -8   56.85   16.46
 -13   2   8   46.51   16.50
 -12   2   8   16.53   10.51
 -12  -2   8   10.23   10.22
 -11   2   8   27.15   12.08
 -11  -2   8   28.19   12.30
 -10   2   8   38.82   13.95
 -10  -2   8   51.85   16.44
  -9   2   8  100.89   22.23
  -9  -2   8   72.00   20.26
  -8   2   8   58.80   16.68
  -8  -2   8   48.88   16.82
  -7   2   8  150.76   27.04
  -7  -2   8  164.10   27.71
  -6   2   8    8.87    5.47
  -6  -2   8   19.08   10.03
  -5   2   8    9.67    7.98
  -5  -2   8    7.24    5.28
  -4   2   8   -5.96    1.02
  -4  -2   8   13.61    9.50
  -3   2   8  111.40   22.18
  -3  -2   8  106.39   21.65
  -2   2   8   57.51   15.77
  -2  -2   8   54.14   15.64
   1  -2  -8   92.00   16.87
  -1   2   8   81.96   18.55
  -1  -2   8   86.40   18.47
   0   2   8   82.48   17.76
   0  -2   8   82.34   18.23
   0  -2  -8   79.59   14.41
   0   2  -8   99.42   18.35
   1  -2   8   10.76    5.48
  -1   2  -8    8.41    7.84
  -1  -2  -8    5.10    0.34
   2  -2   8    8.69    7.22
  -2  -2  -8   12.06    6.58
  -2   2  -8   13.77    7.89
  -3   2  -8   31.94   10.60
  -3  -2  -8   36.66    9.38
  -4   2  -8  121.16   20.86
  -5   2  -8   15.42    8.86
  -6   2  -8   97.95   19.50
  -7   2  -8   38.47   13.99
  -8   2  -8   15.74    8.40
  -9   2  -8   16.09    8.17
 -10   2  -8   45.51   15.33
 -13   3   8   51.69   16.31
 -12   3   8   21.39   11.14
 -12  -3   8   43.08   16.31
 -11   3   8   57.08   17.53
 -11  -3   8   53.90   16.70
 -10   3   8   13.19   10.46
 -10  -3   8   15.23   10.91
  -9   3   8   89.52   21.13
  -9  -3   8   89.66   21.99
  -8   3   8  105.35   23.07
  -8  -3   8   72.95   20.66
  -7   3   8   29.38   12.24
  -7  -3   8   22.16   10.95
  -6   3   8   67.37   17.45
  -6  -3   8   88.25   20.19
  -5   3   8    2.51    8.05
  -5  -3   8    4.67    4.56
  -4   3   8   45.59   13.88
  -4  -3   8   32.01   12.28
  -3   3   8   39.16   14.41
  -3  -3   8   31.35   13.00
  -2  -3   8  136.17   23.87
  -2   3   8  104.02   21.77
  -1   3   8   15.23    7.63
  -1  -3   8   25.72   10.15
   1  -3  -8   38.62   10.26
   0   3   8   11.17    7.07
   0  -3  -8   24.24    7.28
   0  -3   8   18.78    8.22
   0   3  -8   15.26    7.50
   1  -3   8   11.93    7.23
  -1   3  -8   19.08   10.32
  -2   3  -8    7.06    6.87
   2  -3   8   10.86    9.36
   3  -3   8    4.98    2.78
  -3   3  -8   14.10   10.60
  -4   3  -8   41.60   14.41
  -5   3  -8   72.86   17.17
  -6   3  -8   18.22    9.17
  -7   3  -8    5.57    6.69
  -8   3  -8    9.43    8.02
  -9   3  -8   11.47    7.15
 -10   3  -8   13.14    9.33
 -11   3  -8   27.21   11.57
 -13   4   8   30.40   13.52
 -12   4   8   68.01   19.66
 -12  -4   8   58.77   18.25
 -11   4   8   19.80   12.27
 -11  -4   8   17.12   11.80
 -10   4   8   95.59   23.27
 -10  -4   8  105.75   24.01
  -9   4   8   32.16   12.40
  -9  -4   8   36.54   14.15
  -8   4   8   21.20   10.26
  -8  -4   8   18.36   11.30
  -7   4   8   84.21   20.23
  -7  -4   8  132.52   25.70
  -6   4   8   -0.90    2.64
  -6  -4   8   12.92    9.71
  -5   4   8  155.77   27.02
  -5  -4   8  154.41   27.30
  -4   4   8   22.19   12.14
  -4  -4   8   16.93    9.92
  -3   4   8  139.67   25.63
  -3  -4   8  163.47   26.39
  -2   4   8   26.11   11.53
  -2  -4   8    3.06    4.19
  -1   4   8   22.82    9.56
  -1  -4   8   37.00   11.84
   0  -4   8   27.73   10.54
   0   4  -8   47.17   13.90
   1  -4   8   -0.19    3.49
  -1   4  -8   -1.02    5.53
  -2   4  -8   70.11   16.99
   2  -4   8   69.75   16.92
   3  -4   8   34.12   12.00
  -3   4  -8   48.57   14.18
  -4   4  -8   72.21   17.16
  -5   4  -8    4.63    5.92
  -6   4  -8   21.99   10.38
  -7   4  -8   11.30    8.96
  -8   4  -8   -0.17    2.34
  -9   4  -8   34.48   12.26
 -10   4  -8   16.79   11.37
 -11   4  -8   29.48   11.84
 -12   4  -8    5.44    8.62
 -13   5   8   36.75   14.39
 -12   5   8   29.18   13.77
 -12  -5   8   47.99   17.88
 -11   5   8   49.51   16.35
 -11  -5   8   57.16   18.76
 -10   5   8    5.92    5.26
 -10  -5   8   10.25    8.92
  -9   5   8    0.79    4.38
  -9  -5   8   17.81   12.07
  -8   5   8   20.10    7.55
  -8  -5   8   42.20   14.93
  -7   5   8    4.94    2.55
  -7  -5   8   35.98   14.84
  -6  -5   8  155.89   27.90
  -6   5   8  100.35   21.58
  -5   5   8    5.09    5.03
  -5  -5   8   17.75   11.60
  -4  -5   8  157.95   26.35
  -4   5   8  131.48   23.98
  -3   5   8  -11.03    6.80
  -3  -5   8   12.21   10.10
  -2   5   8   37.00   13.98
  -2  -5   8   51.91   14.28
  -1  -5   8   19.52   10.14
   0   5  -8   11.94   10.82
   0  -5   8    9.65    6.09
   1  -5   8  107.33   20.73
  -1   5  -8  129.02   22.64
  -2   5  -8   31.13   12.42
   2  -5   8   12.06    8.22
   3  -5   8  121.07   21.99
  -3   5  -8  149.18   24.92
  -4   5  -8   29.30   12.49
  -5   5  -8   71.94   16.83
  -6   5  -8   -4.39    4.53
  -7   5  -8   10.19    3.36
  -8   5  -8   45.93   14.54
  -9   5  -8   17.07   10.25
 -10   5  -8   56.77   16.47
 -11   5  -8   33.34   14.61
 -13   6   8   32.37   13.58
 -12   6   8   34.24   13.98
 -11   6   8   20.66   10.53
 -11  -6   8   44.85   15.45
 -10   6   8    6.95    4.76
 -10  -6   8   18.00   10.69
  -9   6   8   15.89    8.38
  -9  -6   8   12.66    9.90
  -8   6   8   37.04   14.95
  -8  -6   8   45.05   16.09
  -7   6   8   51.32   16.34
  -7  -6   8   53.45   16.36
  -6   6   8   24.42   10.68
  -6  -6   8   59.31   16.86
  -5   6   8  157.96   26.70
  -5  -6   8  180.86   28.51
  -4   6   8   26.57   11.47
  -4  -6   8   48.86   16.37
  -3   6   8   91.71   20.34
  -3  -6   8   93.23   20.03
  -2  -6   8   32.32   13.10
  -1  -6   8   11.81    7.63
   0  -6   8  100.04   20.01
   0   6  -8  134.57   24.55
   1  -6   8   18.25    9.99
  -1   6  -8   15.79   10.74
   2  -6   8  211.16   28.43
  -2   6  -8  257.84   33.30
   3  -6   8    6.40    7.24
  -3   6  -8   28.58   12.27
   4  -6   8  163.08   24.63
  -4   6  -8  174.85   27.49
  -5   6  -8   20.04    9.12
  -6   6  -8   50.47   16.14
  -7   6  -8   19.00   11.15
  -8   6  -8   45.80   15.11
  -9   6  -8   45.29   15.26
 -10   6  -8   51.86   16.72
 -11   6  -8   27.74   12.44
 -13   7   8   28.19   13.16
 -12   7   8   21.11   11.80
 -11   7   8   11.84    9.57
 -11  -7   8    5.16    9.46
 -10   7   8   65.37   17.98
 -10  -7   8   88.21   22.45
  -9   7   8   11.78    9.19
  -9  -7   8   12.79    8.68
  -8   7   8   20.12   10.25
  -8  -7   8   32.61   10.90
  -7   7   8   29.95   13.16
  -7  -7   8   31.93   12.68
  -6   7   8  113.02   23.03
  -6  -7   8  132.53   25.36
  -5   7   8   40.23   13.60
  -5  -7   8   76.29   20.48
  -4   7   8  153.34   26.45
  -4  -7   8  180.21   28.87
  -3  -7   8   94.08   20.64
  -2  -7   8   38.62   13.23
   1   7  -8   56.58   16.02
  -1  -7   8   83.95   19.15
   0  -7   8   25.73   12.50
   0   7  -8   21.02    9.79
   1  -7   8  241.93   31.07
  -1   7  -8  250.83   34.25
   2  -7   8    9.55    7.27
  -2   7  -8   19.18   11.77
   3  -7   8  258.68   31.18
  -3   7  -8  302.60   37.14
   4  -7   8    8.50    8.19
  -4   7  -8    7.33   11.80
  -5   7  -8   95.40   21.14
  -6   7  -8    5.54    8.46
  -7   7  -8  101.71   21.58
  -8   7  -8   45.42   14.52
  -9   7  -8   62.44   18.19
 -10   7  -8   50.07   16.75
 -12   8   8   10.35    5.89
 -11   8   8   29.72   12.94
 -10   8   8   10.58    8.50
 -10  -8   8   14.46    7.83
  -9   8   8   50.65   16.88
  -9  -8   8   43.59   16.28
  -8   8   8   13.56    8.61
  -8  -8   8    4.52    6.20
  -7   8   8   39.95   14.24
  -7  -8   8   36.98   13.20
  -6   8   8    1.30    4.51
  -6  -8   8   13.75    8.43
  -5   8   8  106.03   22.31
  -5  -8   8  117.76   24.01
  -4  -8   8   84.86   19.35
  -3  -8   8   36.10   13.94
  -2  -8   8   69.86   16.78
   1   8  -8   28.17   13.39
  -1  -8   8   17.74    5.98
   0  -8   8   58.86   16.14
   0   8  -8   58.60   16.65
   1  -8   8   64.31   16.74
  -1   8  -8   83.27   20.34
  -2   8  -8  130.19   25.00
   2  -8   8  121.96   21.65
   3  -8   8    7.09    4.90
  -3   8  -8   10.96   10.27
  -4   8  -8   55.24   16.15
  -5   8  -8   17.16   11.39
  -6   8  -8   69.06   18.72
  -7   8  -8   21.02   11.90
  -8   8  -8   59.76   17.11
  -9   8  -8   47.80   16.87
 -12   9   8   19.25   11.30
 -11   9   8   36.63   14.51
 -10   9   8   82.75   20.48
 -10  -9   8   77.72   21.67
  -9   9   8   13.18    8.71
  -9  -9   8   24.41   14.49
  -8   9   8   17.79    9.32
  -8  -9   8   21.38   13.68
  -7   9   8   37.27   13.84
  -7  -9   8   58.75   17.70
  -6  -9   8   46.52   18.22
  -5  -9   8   10.66    7.66
  -4  -9   8   92.06   20.78
  -3  -9   8   51.44   15.74
  -2  -9   8   29.96   13.25
   1   9  -8   16.82   12.44
  -1  -9   8    3.97    7.55
   0  -9   8  106.73   22.05
   0   9  -8  129.99   24.92
   1  -9   8   22.53   11.78
  -1   9  -8   33.33   14.00
  -2   9  -8   23.30   13.04
   2  -9   8   14.05    8.10
  -3   9  -8   29.57   12.49
  -4   9  -8   14.79   11.74
  -5   9  -8    8.14    9.97
  -6   9  -8    3.52    7.09
  -7   9  -8   69.17   19.74
  -8   9  -8   21.25   11.05
 -11  10   8   28.74   11.64
 -10  10   8   25.11   11.83
  -9  10   8  104.46   23.93
  -9 -10   8   99.42   23.19
  -8 -10   8   36.80   14.57
  -7 -10   8   20.99   11.80
  -6 -10   8   78.69   19.47
  -5 -10   8   87.19   21.28
  -4 -10   8   10.55    6.53
  -3 -10   8   33.59   13.84
  -2 -10   8   19.11    8.04
  -1 -10   8   52.50   14.87
   1  10  -8   65.26   18.62
   0 -10   8    5.84    7.94
   0  10  -8   24.46   13.24
   1 -10   8  108.94   21.22
  -1  10  -8  134.73   26.76
  -2  10  -8   32.77   15.88
  -3  10  -8    8.89    7.88
  -4  10  -8   10.34    8.56
  -5  10  -8   16.65   13.42
  -6  10  -8   22.91   12.92
  -7  10  -8    8.75   13.23
  -8 -11   8   15.85    9.88
  -7 -11   8   40.06   14.26
  -6 -11   8   29.81   12.09
  -5 -11   8   29.60   12.72
  -4 -11   8   15.81    8.60
  -3 -11   8   46.42   14.75
   2  11  -8    9.25    7.70
  -2 -11   8   10.38   10.72
   1  11  -8   10.51   10.02
  -1 -11   8    3.97    1.96
   0  11  -8  132.40   28.37
   0 -11   8  107.28   21.04
  -1  11  -8    9.04    8.79
  -2  11  -8   17.56   11.23
  -3  11  -8    9.60   11.18
  -4  11  -8   42.75   17.68
  -5  11  -8   55.79   18.52
  -8 -12   8   -3.32    5.10
  -7 -12   8   13.48    9.17
  -6 -12   8   13.71   10.10
  -5 -12   8   96.20   22.09
  -4 -12   8   44.01   14.92
  -3 -12   8   31.08   13.16
   2  12  -8   60.06   17.21
  -2 -12   8   59.94   17.61
  -1 -12   8   18.18    8.88
   1  12  -8   52.61   18.84
   0  12  -8   23.14   12.52
  -1  12  -8   73.55   21.41
  -2  12  -8  127.12   26.74
  -3  12  -8   19.32   11.27
  -4  12  -8   48.06   18.88
  -7 -13   8    0.93    3.14
  -6 -13   8   54.86   18.37
  -5 -13   8   14.00    9.45
  -4 -13   8   86.19   20.98
  -3 -13   8   88.52   20.94
  -2 -13   8    4.82    9.79
   2  13  -8   12.51   11.20
   1  13  -8   51.80   17.34
   0  13  -8   28.68   13.85
  -1  13  -8  101.17   25.20
  -6 -14   8    5.97    5.47
  -5 -14   8   67.61   19.20
  -4 -14   8   27.03   12.02
  -3 -14   8   27.42   11.74
  -6 -15   8   54.79   18.54
  -5 -15   8   20.71   11.85
 -10   0   9    9.66    4.80
  -9   0   9   -0.11    6.72
  -8   0   9    5.83    9.31
  -7   0   9    4.74    6.08
  -6   0   9   -6.48    2.21
  -5   0   9   -5.09    1.54
  -4   0   9    3.56    4.62
  -3   0   9   -2.12    2.60
  -2   0   9    0.16    5.30
  -1   0   9    5.88    6.68
   1   0  -9    4.64    3.13
   0   0   9   11.23    8.53
   0   0  -9   -2.32    1.39
   1   0   9    3.61    4.98
  -1   0  -9    6.45    3.93
 -10   1   9    4.21    7.76
 -10  -1   9   16.63   12.57
  -9   1   9   11.67    9.90
  -9  -1   9   29.22   13.88
  -8   1   9   -2.27    5.05
  -8  -1   9    0.99    5.35
  -7   1   9   19.27    9.81
  -7  -1   9   11.42    7.74
  -6   1   9    3.47    5.95
  -6  -1   9   20.60   11.35
  -5   1   9   -0.55    2.45
  -5  -1   9   12.98    8.75
  -4   1   9   14.14   10.22
  -4  -1   9   10.94    6.40
  -3   1   9    3.20    2.05
  -3  -1   9    9.28    8.35
  -2   1   9    2.61    5.85
  -2  -1   9    6.98    7.89
  -1   1   9    2.91    7.04
  -1  -1   9   -0.91    2.14
   1   1  -9    8.91    5.32
   0   1   9    0.64    4.81
   0  -1   9    6.72    6.09
   0   1  -9    7.59    8.74
   1  -1   9   17.53    8.43
  -1   1  -9   27.88   10.28
  -2   1  -9    8.08    6.18
  -3   1  -9   44.54   12.97
 -10   2   9   11.91   10.19
 -10  -2   9   12.40    8.44
  -9   2   9    4.89    5.18
  -9  -2   9    9.44   12.49
  -8   2   9   78.63   20.73
  -8  -2   9   53.16   16.99
  -7   2   9   16.74   10.24
  -7  -2   9    3.78    4.88
  -6   2   9   10.81    6.06
  -6  -2   9   23.97   11.56
  -5   2   9   97.38   22.63
  -5  -2   9   58.63   17.28
  -4   2   9   -5.40    5.15
  -4  -2   9    8.96    6.44
  -3   2   9    7.40    7.94
  -3  -2   9    1.62    4.64
  -2   2   9   30.89   14.01
  -2  -2   9    4.26    1.18
   1   2  -9   49.83   14.17
  -1   2   9   36.61   12.70
  -1  -2   9   26.10   11.34
   0   2   9   24.40   10.87
   0  -2   9   33.37   13.18
   0   2  -9   36.22   11.82
  -1   2  -9    4.22    6.47
   1  -2   9   11.25    7.35
   2  -2   9   78.73   19.52
  -2   2  -9  108.02   21.05
  -3   2  -9   19.78   11.86
  -4   2  -9   16.47    7.80
  -5   2  -9    1.89    2.46
 -10   3   9    1.73    1.79
  -9   3   9   30.28   14.54
  -9  -3   9   39.67   15.67
  -8   3   9   17.31   11.93
  -8  -3   9   18.12   11.78
  -7   3   9   12.42    8.37
  -7  -3   9   20.99   10.64
  -6   3   9   11.12    8.41
  -6  -3   9    9.10    8.10
  -5   3   9    6.17    6.05
  -5  -3   9   12.98    8.42
  -4   3   9   13.06    7.07
  -4  -3   9   47.28   16.14
  -3   3   9    8.00    5.44
  -3  -3   9    1.62    3.27
  -2   3   9   14.74    6.92
  -2  -3   9   25.81   10.96
  -1   3   9    4.37    2.59
   1   3  -9   17.48    7.28
  -1  -3   9   12.84    9.19
   0  -3   9   -2.44    5.70
   0   3  -9   -3.16    6.74
   1  -3   9   15.58    9.56
  -1   3  -9   27.90   10.27
   2  -3   9    3.82    3.53
  -2   3  -9   18.51    7.47
  -3   3  -9   30.63   11.74
  -4   3  -9    4.88    6.90
  -5   3  -9   19.00    9.91
  -6   3  -9   11.25   10.14
  -7   3  -9   -1.36    8.76
  -9   4   9    8.60    8.01
  -9  -4   9    1.74    5.90
  -8   4   9   10.02    8.99
  -8  -4   9   11.13   10.29
  -7   4   9   16.97    9.56
  -7  -4   9   16.81    9.07
  -6   4   9   26.26   11.56
  -6  -4   9   40.54   13.93
  -5   4   9   13.84    8.85
  -5  -4   9   28.06   11.30
  -4   4   9   18.09   10.47
  -4  -4   9   14.86    9.02
  -3   4   9   11.46    8.12
  -3  -4   9    7.33    8.26
  -2   4   9   27.46   11.63
  -2  -4   9    5.11    5.52
  -1  -4   9   31.34   12.32
   1   4  -9   40.28   13.85
   0   4  -9   53.12   17.05
   0  -4   9   39.27   13.66
   1  -4   9    7.11    8.28
  -1   4  -9   22.54   10.41
   2  -4   9    4.41    1.87
  -2   4  -9   37.25   13.43
   3  -4   9    1.89    4.62
  -3   4  -9   10.23    9.12
  -4   4  -9   28.98   13.09
  -5   4  -9   -1.44    1.50
  -6   4  -9   33.52   13.06
  -7   4  -9    6.97    8.82
  -8   4  -9   11.49    7.38
  -9   5   9    6.33    7.40
  -9  -5   9    7.57    6.87
  -8   5   9   21.47   13.62
  -8  -5   9   16.04    9.49
  -7   5   9   16.52   10.15
  -7  -5   9   24.67   11.32
  -6   5   9   27.48   13.79
  -6  -5   9    6.30    6.51
  -5   5   9   38.76   14.42
  -5  -5   9   26.37   12.26
  -4   5   9   -2.00    1.63
  -4  -5   9   16.46    8.55
  -3   5   9    7.17    5.89
  -3  -5   9    3.49    3.24
  -2  -5   9   44.83   13.33
  -1  -5   9   41.68   13.94
   1   5  -9   52.72   16.25
   0   5  -9    8.01   10.13
   0  -5   9    1.85    2.46
   1  -5   9   20.50   10.33
  -1   5  -9   25.22   10.98
   2  -5   9    2.98    5.97
  -2   5  -9   18.12   10.02
   3  -5   9   10.96    9.16
  -3   5  -9   14.78   11.16
  -4   5  -9   16.90   12.56
  -5   5  -9   13.65    9.05
  -6   5  -9   14.86   10.43
  -7   5  -9   10.23    6.83
  -8   5  -9    0.44    6.28
  -9   5  -9    5.31    6.87
  -9   6   9    0.51    6.21
  -8   6   9   14.01    9.47
  -8  -6   9   20.36   11.77
  -7   6   9   31.00   13.12
  -7  -6   9   43.99   15.33
  -6   6   9   73.25   20.27
  -6  -6   9   62.32   17.57
  -5   6   9    8.81    4.38
  -5  -6   9   13.39   10.58
  -4   6   9    9.09    5.64
  -4  -6   9   12.27    8.14
  -3  -6   9   18.85   11.40
  -2  -6   9   13.33    8.71
  -1  -6   9   13.22    9.09
   1   6  -9    3.67    5.68
   0   6  -9   69.25   18.96
   0  -6   9   97.85   21.46
   1  -6   9   14.03    7.95
  -1   6  -9   27.80   14.43
   2  -6   9   -2.35    3.93
  -2   6  -9    4.55    7.29
   3  -6   9   12.93    8.06
  -3   6  -9   10.82    8.16
  -4   6  -9   28.25   14.48
  -5   6  -9   11.13    7.89
  -6   6  -9   16.07    8.40
  -7   6  -9   21.43   11.96
  -8   6  -9   16.89    8.01
  -9   6  -9   10.39    0.29
  -8   7   9   12.61    9.09
  -8  -7   9   14.08   10.11
  -7   7   9   24.39   12.53
  -7  -7   9   10.35    6.90
  -6   7   9   13.15    6.11
  -6  -7   9   23.34   11.83
  -5   7   9    4.87    3.96
  -5  -7   9   10.15    9.92
  -4  -7   9   13.56    8.77
  -3  -7   9   34.56   13.12
  -2  -7   9    5.21    7.02
   1   7  -9   21.39   13.51
  -1  -7   9   11.06    7.72
   0   7  -9   42.17   17.43
   0  -7   9   30.54   11.61
   1  -7   9    9.59    7.28
  -1   7  -9   21.63   14.03
   2  -7   9    6.34    7.87
  -2   7  -9    5.36    8.27
   3  -7   9    5.08    7.16
  -3   7  -9    8.14    9.70
  -4   7  -9   30.69   11.07
  -5   7  -9   -0.22    3.97
  -6   7  -9   20.13   11.03
  -7   7  -9   -0.12    4.99
  -7   8   9    7.40    8.01
  -7  -8   9    7.19    6.65
  -6   8   9   -0.60    2.51
  -6  -8   9    2.01    4.56
  -5  -8   9   -1.14    4.22
  -4  -8   9   50.28   15.50
  -3  -8   9   27.39   13.52
   2   8  -9   74.49   20.77
  -2  -8   9   48.45   16.23
   1   8  -9   15.09    8.66
  -1  -8   9   11.82    9.13
   0   8  -9   18.94   12.49
   0  -8   9    1.19    5.97
   1  -8   9   25.00   11.76
  -1   8  -9   17.55    9.87
   2  -8   9   -4.31    4.46
  -2   8  -9   17.83   12.25
  -3   8  -9   18.31   11.43
  -4   8  -9   13.11    6.80
  -5   8  -9   -1.94    7.54
  -6   8  -9   21.32    9.75
  -7  -9   9    6.62    9.50
  -6  -9   9    5.47    9.25
  -5  -9   9    8.06    7.41
  -4  -9   9    7.11    9.33
  -3  -9   9   34.85   12.99
  -2  -9   9   -2.73    2.39
   2   9  -9    9.68   11.02
  -1  -9   9    4.14    6.24
   1   9  -9    8.38   10.68
   0  -9   9   24.40   12.61
   0   9  -9   17.01   10.89
   1  -9   9    4.58    7.06
  -1   9  -9   -0.31    1.43
  -2   9  -9    0.12    3.18
  -3   9  -9   15.22    9.24
  -4   9  -9    6.29    3.34
  -5   9  -9    7.42    3.79
  -6 -10   9    7.59    8.42
  -5 -10   9    9.48    9.42
  -4 -10   9    3.43    7.06
  -3 -10   9    3.55    1.23
   2  10  -9   24.83   12.15
  -2 -10   9    2.45    4.82
  -1 -10   9    3.75    6.92
   1  10  -9    4.44    1.53
   0 -10   9    4.48    3.33
   0  10  -9    7.24    4.87
  -1  10  -9    7.28    5.12
  -2  10  -9   -1.16    5.77
  -3  10  -9    6.34    9.04
  -6 -11   9   -3.72    0.35
  -5 -11   9   10.35    7.92
  -4 -11   9    6.88    7.46
  -3 -11   9    9.79    6.03
  -2 -11   9   -3.33    3.72
  -1 -11   9    3.08    4.31
  -5 -12   9    1.87    3.90
  -4 -12   9   36.17   14.37
  -3 -12   9   22.47   12.68
  -4 -13   9    1.02    7.14
  -5   0  10   49.87   16.79
  -4   0  10   58.17   17.50
  -3   0  10    1.28    5.65
  -2   0  10   18.74   11.09
  -1   0  10    9.82    7.16
   0   0  10   21.71    7.07
  -5   1  10  131.41   27.54
  -5  -1  10  131.63   28.27
  -4   1  10   74.97   20.50
  -4  -1  10   80.66   20.52
  -3   1  10   13.37    7.87
  -3  -1  10   22.54   10.30
  -2   1  10   11.56    6.94
  -2  -1  10    5.32    7.46
  -1   1  10   26.42   10.29
  -1  -1  10   32.33   13.55
   0   1  10   34.37   13.00
   0  -1  10   37.23   12.77
   1  -1  10    8.08    7.43
  -5  -2  10   84.17   21.70
  -4   2  10   17.38    9.54
  -4  -2  10   31.57   14.03
  -3   2  10   22.92   10.77
  -3  -2  10   51.42   16.88
  -2   2  10    6.71    3.66
  -2  -2  10   -3.79    3.13
  -1   2  10   43.18   14.67
  -1  -2  10   27.28   13.84
   0  -2  10   10.54    8.16
   1  -2  10   97.15   23.11
  -5  -3  10   16.31   11.13
  -4   3  10   81.00   21.95
  -4  -3  10  102.85   24.45
  -3   3  10   12.58    9.49
  -3  -3  10   24.28   13.59
  -2   3  10   53.19   17.45
   2   3 -10   86.54   20.61
  -2  -3  10   62.14   17.76
  -1  -3  10    3.24    6.10
   1   3 -10   10.72   11.59
   0  -3  10   86.94   20.34
   0   3 -10  101.48   22.24
   1  -3  10    0.93    5.36
  -5  -4  10   69.36   20.92
  -4  -4  10   -3.95    1.65
  -3   4  10   92.96   22.82
  -3  -4  10  119.88   25.55
  -2  -4  10    1.94    6.93
   2   4 -10   17.35   11.07
   1   4 -10   95.00   23.72
  -1  -4  10   81.56   21.00
   0  -4  10    5.79    1.22
   0   4 -10   -4.90    5.35
   1  -4  10  104.31   22.32
  -1   4 -10  132.30   25.59
   2  -4  10   17.10   10.66
  -2   4 -10   29.27   13.43
  -3   4 -10   60.62   17.85
  -5  -5  10    7.11    7.10
  -4  -5  10   62.32   19.50
  -3  -5  10   13.86   10.06
  -2  -5  10  108.33   24.77
   2   5 -10  100.62   23.09
   1   5 -10   13.23   10.92
  -1  -5  10   14.32    9.64
   0  -5  10   59.18   18.29
   0   5 -10   62.51   17.59
   1  -5  10    9.77    8.35
  -1   5 -10   17.32   11.52
   2  -5  10   11.90    9.17
  -2   5 -10    9.44    8.25
  -3   5 -10   18.68    9.70
  -4   5 -10    7.31    8.30
  -4  -6  10   14.31    8.28
  -3  -6  10   42.11   14.33
   2   6 -10   11.08    9.75
  -2  -6  10   18.43   13.07
   1   6 -10  102.76   24.03
  -1  -6  10   64.12   19.04
   0  -6  10   17.28    9.10
   0   6 -10   14.41    9.36
  -1   6 -10   23.44   10.38
   1  -6  10   17.35   10.71
   2  -6  10    8.95    8.61
  -2   6 -10   18.04   11.98
  -3   6 -10    7.05    6.19
  -4   6 -10    4.12    6.42
  -5   6 -10   19.23   11.10
  -4  -7  10    8.05   10.52
   3   7 -10   47.82   16.69
  -3  -7  10   68.74   19.05
   2   7 -10   45.15   15.43
  -2  -7  10   53.85   17.72
   1   7 -10   24.54   13.01
  -1  -7  10    8.25    9.22
   0  -7  10   21.48   12.06
   0   7 -10   18.07    9.01
  -1   7 -10   15.09   12.89
   1  -7  10    7.12    5.91
  -2   7 -10    1.79    3.59
  -3   7 -10   -1.94    5.33
  -4   7 -10   23.94   12.33
  -4  -8  10   17.79    9.91
  -3  -8  10   17.07   11.12
  -2  -8  10    9.24    7.67
   2   8 -10   13.03   10.08
   1   8 -10   48.98   16.70
  -1  -8  10   41.94   14.68
   0  -8  10    4.08    9.55
   0   8 -10    4.66    8.28
  -1   8 -10   10.85    9.95
  -3  -9  10   29.08   11.41
  -2  -9  10   48.78   16.11
  -1  -9  10    3.28    5.98
  -3 -10  10   34.71   13.95
  -2 -10  10    8.89   10.30
   0   0   0    0.00    0.00
;
_shelx_hkl_checksum              61617
_shelx_res_file
;
TITL dpyP21oc in P2(1)/c
CELL  0.71073  15.0068  16.9568   8.1667   90.000   95.491   90.000
ZERR     4.00   0.0015   0.0015   0.0005    0.000    0.009    0.000
LATT   1
SYMM  - X, 1/2 + Y, 1/2 - Z
SFAC  C    N    O    S    I    PB   H
UNIT  40   4    8    8    12   4    72
MERG   2
FLAT  C1 C5 C3 C6 C2 C7 N1
SADI  C1 C2 C2 C3 C5 C6 C3 C6 C3 C7
EQIV  $2  1-x, 1-y, 1-z
DFIX     1.360   0.010 C7 C7_$2
DFIX     1.060   0.020 C7 H99
FMAP   2
PLAN   20
ACTA
HTAB
EQIV $3 x, y, z-1
HTAB N1 O1_$3
HTAB N1 S5_$3
EQIV $4 -x+1, -y+1, -z
HTAB C1 I3_$4
HTAB C5 S6
EQIV $5 x, -y+1/2, z+1/2
HTAB C9 O2_$5
HTAB C8 O2
EQIV $6 -x+1, y-1/2, -z+1/2
HTAB C2 I2_$6
EQIV $7 -x+2, y-1/2, -z+1/2
HTAB C11 I4_$7
EQIV $8 -x+2, -y+1, -z
HTAB C11 I4_$8
HTAB C10 I2_$7
BOND
L.S.   4
WGHT    0.044700    4.461000
FVAR       0.07393
O1    3    0.725800    0.362235    0.813955    11.00000    0.03038
N1    2    0.651719    0.425994    0.057827    11.00000    0.02644
AFIX  43
H4    7    0.678792    0.412442   -0.025987    11.00000   -1.20000
AFIX   0
C1    1    0.568667    0.393867    0.069894    11.00000    0.01419
AFIX  43
H1    7    0.544288    0.357529   -0.007103    11.00000   -1.20000
AFIX   0
C5    1    0.694585    0.476416    0.164119    11.00000    0.04663
AFIX  43
H5    7    0.751783    0.494977    0.151006    11.00000   -1.20000
AFIX   0
C3    1    0.564419    0.469947    0.312883    11.00000    0.05219
C9    1    0.704220    0.299893    0.519621    11.00000    0.05334
AFIX  33
H9A   7    0.643943    0.282447    0.527738    11.00000   -1.50000
H9B   7    0.745273    0.259578    0.561082    11.00000   -1.50000
H9C   7    0.712517    0.310391    0.406570    11.00000   -1.50000
AFIX   0
C8    1    0.838257    0.401433    0.592724    11.00000    0.03404
AFIX  33
H8A   7    0.861144    0.448233    0.647962    11.00000   -1.50000
H8B   7    0.840657    0.407347    0.476321    11.00000   -1.50000
H8C   7    0.873870    0.356924    0.631148    11.00000   -1.50000
AFIX   0
C6    1    0.648255    0.499053    0.294547    11.00000    0.04478
AFIX  43
H6    7    0.674329    0.534678    0.371394    11.00000   -1.20000
AFIX   0
C2    1    0.522200    0.417303    0.200603    11.00000    0.05915
AFIX  43
H2    7    0.464978    0.398469    0.212530    11.00000   -1.20000
AFIX   0
O2    3    0.842334    0.347092    0.206395    11.00000    0.05231
C11   1    0.950699    0.307174   -0.010737    11.00000    0.06084
AFIX  33
H11A  7    0.906943    0.282581   -0.087750    11.00000   -1.50000
H11B  7    0.972952    0.269318    0.070526    11.00000   -1.50000
H11C  7    0.999304    0.326444   -0.067865    11.00000   -1.50000
AFIX   0
C10   1    0.994105    0.417628    0.220341    11.00000    0.09161
AFIX  33
H10A  7    0.978879    0.462104    0.284853    11.00000   -1.50000
H10B  7    1.041767    0.431881    0.155632    11.00000   -1.50000
H10C  7    1.013081    0.374702    0.292011    11.00000   -1.50000
AFIX   0
C7    1    0.534703    0.502705    0.453540    11.00000    0.07715
AFIX  43
H7    7    0.575433    0.540175    0.497644    11.00000   -1.20000
AFIX   0
MOLE    1
PB1   6    0.727337    0.748383    0.074947    11.00000    0.03457    0.02243 =
         0.01405   -0.00031    0.00378    0.00124
I2    5    0.745342    0.897565    0.311113    11.00000    0.04463    0.02046 =
         0.01972   -0.00066    0.00689   -0.00176
I3    5    0.568244    0.703615    0.298571    11.00000    0.03357    0.02983 =
         0.01582   -0.00151    0.00032   -0.00413
I4    5    0.857511    0.653700    0.343741    11.00000    0.03387    0.03453 =
         0.02179    0.00060    0.00493    0.00355
S5    4    0.724137    0.386055    0.635337    11.00000    0.03200
S6    4    0.899600    0.388579    0.088956    11.00000    0.04564
HKLF 4
REM  dpyP21oc in P2(1)/c
REM R1 =  0.0891 for    2814 Fo > 4sig(Fo)  and  0.1531 for all    4632 data
REM     97 parameters refined using     15 restraints
END
WGHT      0.0467      6.4057
REM Instructions for potential hydrogen bonds
HTAB N1 O1_$3
HTAB N1 S5_$3
HTAB C1 I3_$4
HTAB C5 S6
HTAB C9 O2_$5
HTAB C8 O2
HTAB C2 I2_$6
HTAB C11 I4_$7
HTAB C11 I4_$8
HTAB C10 I2_$7
REM Highest difference peak  2.871,  deepest hole -2.287,  1-sigma level  0.419
Q1    1   0.6752  0.7818  0.0001  11.00000  0.05    2.87
Q2    1   0.7767  0.7789  0.1416  11.00000  0.05    2.76
Q3    1   0.7774  0.7208  0.1420  11.00000  0.05    2.30
Q4    1   0.6722  0.7177  0.0030  11.00000  0.05    2.27
Q5    1   0.7925  0.7439  0.1167  11.00000  0.05    2.26
Q6    1   0.4831  0.4784  0.4345  11.00000  0.05    2.15
Q7    1   0.6559  0.7485  0.1030  11.00000  0.05    2.11
Q8    1   0.7902  0.7479  0.0568  11.00000  0.05    2.09
Q9    1   0.5223  0.6752  0.2435  11.00000  0.05    1.93
Q10   1   0.6961  0.8671  0.2364  11.00000  0.05    1.90
Q11   1   0.8080  0.9016  0.2984  11.00000  0.05    1.80
Q12   1   0.5115  0.7036  0.3463  11.00000  0.05    1.78
Q13   1   0.6176  0.7374  0.3783  11.00000  0.05    1.75
Q14   1   0.8982  0.6955  0.4000  11.00000  0.05    1.72
Q15   1   0.8105  0.6860  0.2802  11.00000  0.05    1.71
Q16   1   0.6003  0.7570  0.1802  11.00000  0.05    1.66
Q17   1   0.7041  0.6894  0.0568  11.00000  0.05    1.64
Q18   1   0.7204  0.9377  0.2699  11.00000  0.05    1.64
Q19   1   0.6034  0.4803  0.3253  11.00000  0.05    1.55
Q20   1   0.8113  0.9268  0.3962  11.00000  0.05    1.51
;
_shelx_res_checksum              95532
_shelxl_version_number           201.4
loop_
_space_group_symop_operation_xyz
'x, y, z'
'-x, y+1/2, -z+1/2'
'-x, -y, -z'
'x, -y-1/2, z-1/2'
loop_
_atom_site_type_symbol
_atom_site_label
_atom_site_fract_x
_atom_site_fract_y
_atom_site_fract_z
_atom_site_U_iso_or_equiv
_atom_site_adp_type
_atom_site_calc_flag
_atom_site_occupancy
O O1 0.7258(10) 0.3622(9) 0.8140(17) 0.030(4) Uiso d 1
N N1 0.6517(11) 0.4260(9) 0.058(2) 0.026(4) Uiso d 1
H H4 0.6788 0.4124 -0.0260 0.032 Uiso calc 1
C C1 0.5687(12) 0.3939(10) 0.070(2) 0.014(4) Uiso d 1
H H1 0.5443 0.3575 -0.0071 0.017 Uiso calc 1
C C5 0.6946(17) 0.4764(13) 0.164(3) 0.047(7) Uiso d 1
H H5 0.7518 0.4950 0.1510 0.056 Uiso calc 1
C C3 0.5644(14) 0.4699(11) 0.313(2) 0.052(8) Uiso d 1
C C9 0.7042(18) 0.2999(16) 0.520(3) 0.053(8) Uiso d 1
H H9A 0.6439 0.2824 0.5277 0.080 Uiso calc 1
H H9B 0.7453 0.2596 0.5611 0.080 Uiso calc 1
H H9C 0.7125 0.3104 0.4066 0.080 Uiso calc 1
C C8 0.8383(15) 0.4014(14) 0.593(3) 0.034(6) Uiso d 1
H H8A 0.8611 0.4482 0.6480 0.051 Uiso calc 1
H H8B 0.8407 0.4073 0.4763 0.051 Uiso calc 1
H H8C 0.8739 0.3569 0.6311 0.051 Uiso calc 1
C C6 0.6483(14) 0.4991(14) 0.295(3) 0.045(7) Uiso d 1
H H6 0.6743 0.5347 0.3714 0.054 Uiso calc 1
C C2 0.5222(19) 0.4173(13) 0.201(2) 0.059(8) Uiso d 1
H H2 0.4650 0.3985 0.2125 0.071 Uiso calc 1
O O2 0.8423(12) 0.3471(11) 0.206(2) 0.052(5) Uiso d 1
C C11 0.9507(19) 0.3072(18) -0.011(3) 0.061(8) Uiso d 1
H H11A 0.9069 0.2826 -0.0877 0.091 Uiso calc 1
H H11B 0.9730 0.2693 0.0705 0.091 Uiso calc 1
H H11C 0.9993 0.3264 -0.0679 0.091 Uiso calc 1
C C10 0.994(2) 0.418(2) 0.220(4) 0.092(12) Uiso d 1
H H10A 0.9789 0.4621 0.2849 0.137 Uiso calc 1
H H10B 1.0418 0.4319 0.1556 0.137 Uiso calc 1
H H10C 1.0131 0.3747 0.2920 0.137 Uiso calc 1
C C7 0.5347(13) 0.5027(18) 0.454(3) 0.077(10) Uiso d 1
H H7 0.5754 0.5402 0.4976 0.093 Uiso calc 1
Pb Pb1 0.72734(6) 0.74838(5) 0.07495(9) 0.0236(2) Uani d 1
I I2 0.74534(10) 0.89757(9) 0.31111(16) 0.0280(4) Uani d 1
I I3 0.56824(10) 0.70361(9) 0.29857(16) 0.0265(4) Uani d 1
I I4 0.85751(10) 0.65370(9) 0.34374(17) 0.0299(4) Uani d 1
S S5 0.7241(4) 0.3861(4) 0.6353(7) 0.0320(14) Uiso d 1
S S6 0.8996(5) 0.3886(4) 0.0890(9) 0.0456(18) Uiso d 1
loop_
_atom_site_aniso_label
_atom_site_aniso_U_11
_atom_site_aniso_U_22
_atom_site_aniso_U_33
_atom_site_aniso_U_12
_atom_site_aniso_U_13
_atom_site_aniso_U_23
Pb1 0.0346(5) 0.0224(5) 0.0141(4) 0.0012(4) 0.0038(3) -0.0003(4)
I2 0.0446(10) 0.0205(8) 0.0197(7) -0.0018(7) 0.0069(7) -0.0007(6)
I3 0.0336(9) 0.0298(9) 0.0158(6) -0.0041(7) 0.0003(6) -0.0015(6)
I4 0.0339(9) 0.0345(9) 0.0218(7) 0.0035(7) 0.0049(6) 0.0006(7)
loop_
_atom_type_symbol
_atom_type_description
_atom_type_scat_dispersion_real
_atom_type_scat_dispersion_imag
_atom_type_scat_source
C C 0.0033 0.0016 'International Tables Vol C Tables 4.2.6.8 and 6.1.1.4'
N N 0.0061 0.0033 'International Tables Vol C Tables 4.2.6.8 and 6.1.1.4'
O O 0.0106 0.0060 'International Tables Vol C Tables 4.2.6.8 and 6.1.1.4'
S S 0.1246 0.1234 'International Tables Vol C Tables 4.2.6.8 and 6.1.1.4'
I I -0.4742 1.8119 'International Tables Vol C Tables 4.2.6.8 and 6.1.1.4'
Pb Pb -3.3944 10.1111 'International Tables Vol C Tables 4.2.6.8 and 6.1.1.4'
H H 0.0000 0.0000 'International Tables Vol C Tables 4.2.6.8 and 6.1.1.4'
loop_
_geom_angle_atom_site_label_1
_geom_angle_atom_site_label_2
_geom_angle_atom_site_label_3
_geom_angle_site_symmetry_1
_geom_angle_site_symmetry_3
_geom_angle
C5 N1 C1 . . 126(2)
N1 C1 C2 . . 117.9(19)
N1 C5 C6 . . 116(2)
C6 C3 C7 . . 108.5(18)
C6 C3 C2 . . 122(2)
C7 C3 C2 . . 130(2)
C3 C6 C5 . . 121(2)
C1 C2 C3 . . 117(2)
C7 C7 C3 3_666 . 140(4)
I2 Pb1 I4 . . 88.42(4)
I2 Pb1 I3 . 4_575 103.76(5)
I4 Pb1 I3 . 4_575 163.93(5)
I2 Pb1 I3 . . 82.44(4)
I4 Pb1 I3 . . 86.02(4)
I3 Pb1 I3 4_575 . 85.26(4)
I2 Pb1 I4 . 4_575 85.75(4)
I4 Pb1 I4 . 4_575 106.71(6)
I3 Pb1 I4 4_575 4_575 84.93(4)
I3 Pb1 I4 . 4_575 162.41(5)
I2 Pb1 I2 . 4_575 169.50(6)
I4 Pb1 I2 . 4_575 89.37(4)
I3 Pb1 I2 4_575 4_575 80.47(4)
I3 Pb1 I2 . 4_575 107.64(4)
I4 Pb1 I2 4_575 4_575 85.06(4)
Pb1 I2 Pb1 . 4_576 78.01(3)
Pb1 I3 Pb1 4_576 . 78.40(4)
Pb1 I4 Pb1 . 4_576 77.60(4)
O1 S5 C9 . . 106.5(11)
O1 S5 C8 . . 107.3(10)
C9 S5 C8 . . 97.6(12)
O2 S6 C10 . . 102.4(14)
O2 S6 C11 . . 102.7(13)
C10 S6 C11 . . 97.8(16)
loop_
_geom_bond_atom_site_label_1
_geom_bond_atom_site_label_2
_geom_bond_site_symmetry_2
_geom_bond_distance
O1 S5 . 1.512(15)
N1 C5 . 1.34(3)
N1 C1 . 1.37(2)
C1 C2 . 1.388(16)
C5 C6 . 1.381(17)
C3 C6 . 1.373(16)
C3 C7 . 1.387(16)
C3 C2 . 1.388(16)
C9 S5 . 1.75(3)
C8 S5 . 1.80(2)
O2 S6 . 1.520(19)
C11 S6 . 1.81(3)
C10 S6 . 1.76(3)
C7 C7 3_666 1.349(10)
Pb1 I2 . 3.1768(16)
Pb1 I4 . 3.2236(17)
Pb1 I3 4_575 3.2289(16)
Pb1 I3 . 3.2320(17)
Pb1 I4 4_575 3.2930(17)
Pb1 I2 4_575 3.3094(16)
I2 Pb1 4_576 3.3093(16)
I3 Pb1 4_576 3.2289(16)
I4 Pb1 4_576 3.2930(17)
loop_
_geom_hbond_atom_site_label_D
_geom_hbond_atom_site_label_H
_geom_hbond_atom_site_label_A
_geom_hbond_site_symmetry_A
_geom_hbond_distance_DH
_geom_hbond_distance_HA
_geom_hbond_distance_DA
_geom_hbond_angle_DHA
N1 H4 O1 1_554 0.86 1.76 2.61(2) 166.5
N1 H4 S5 1_554 0.86 2.95 3.777(19) 163.2
C1 H1 I3 3_665 0.93 2.97 3.850(19) 158.4
C5 H5 S6 . 0.93 2.94 3.52(2) 122.1
C9 H9B O2 4_566 0.96 2.54 3.50(3) 172.0
C8 H8B O2 . 0.96 2.43 3.29(3) 149.1
C2 H2 I2 2_645 0.93 3.14 4.02(3) 158.0
C11 H11B I4 2_745 0.96 3.24 4.02(3) 140.3
C11 H11C I4 3_765 0.96 3.28 4.20(3) 161.4
C10 H10B I2 2_745 0.96 3.23 3.96(4) 133.7

_cod_database_fobs_code 2107271
