#------------------------------------------------------------------------------
#$Date: 2015-12-04 03:39:04 +0200 (Fri, 04 Dec 2015) $
#$Revision: 170697 $
#$URL: svn://www.crystallography.net/cod/cif/2/10/72/2107272.cif $
#------------------------------------------------------------------------------
#
# This file is available in the Crystallography Open Database (COD),
# http://www.crystallography.net/. The original data for this entry
# were provided by IUCr Journals, http://journals.iucr.org/.
#
# The file may be used within the scientific community so long as
# proper attribution is given to the journal article from which the
# data were obtained.
#
data_2107272
loop_
_publ_author_name
'Weber, Oliver J.'
'Marshall, Kayleigh L.'
'Dyson, Lewis M.'
'Weller, Mark T.'
_publ_section_title
;
 Structural diversity in hybrid organic--inorganic lead iodide materials
;
_journal_issue                   6
_journal_name_full               'Acta Crystallographica Section B'
_journal_page_first              668
_journal_page_last               678
_journal_paper_doi               10.1107/S2052520615019885
_journal_volume                  71
_journal_year                    2015
_chemical_formula_sum            'C3 H5 I3 N2 Pb'
_chemical_formula_weight         656.98
_chemical_name_common            'imidazolium lead iodide'
_chemical_name_systematic
;
 ?
;
_space_group_crystal_system      hexagonal
_space_group_IT_number           176
_space_group_name_Hall           '-P 6c'
_space_group_name_H-M_alt        'P 63/m'
_symmetry_space_group_name_Hall  '-P 6c'
_symmetry_space_group_name_H-M   'P 63/m'
_atom_sites_solution_hydrogens   geom
_audit_creation_method           SHELXL-2014
_cell_angle_alpha                90
_cell_angle_beta                 90
_cell_angle_gamma                120
_cell_formula_units_Z            6
_cell_length_a                   15.5643(6)
_cell_length_b                   15.5643(6)
_cell_length_c                   8.0123(5)
_cell_measurement_temperature    150(2)
_cell_volume                     1680.92(14)
_computing_structure_refinement  'SHELXL-2014 (Sheldrick, 2014)'
_diffrn_ambient_temperature      150(2)
_diffrn_measured_fraction_theta_full 0.941
_diffrn_measured_fraction_theta_max 0.820
_diffrn_measurement_device_type  'SuperNova, Dual, Cu at zero, EosS2'
_diffrn_radiation_type           MoK\a
_diffrn_radiation_wavelength     0.71073
_diffrn_reflns_av_R_equivalents  0.0341
_diffrn_reflns_limit_h_max       17
_diffrn_reflns_limit_h_min       -3
_diffrn_reflns_limit_k_max       16
_diffrn_reflns_limit_k_min       -13
_diffrn_reflns_limit_l_max       6
_diffrn_reflns_limit_l_min       -9
_diffrn_reflns_number            3203
_diffrn_reflns_theta_full        25.242
_diffrn_reflns_theta_max         28.721
_diffrn_reflns_theta_min         3.650
_exptl_absorpt_coefficient_mu    23.261
_exptl_absorpt_correction_T_max  1.00000
_exptl_absorpt_correction_T_min  0.24599
_exptl_absorpt_correction_type   multi-scan
_exptl_crystal_colour            yellow
_exptl_crystal_density_diffrn    3.894
_exptl_crystal_description       needle
_exptl_crystal_F_000             1668
_exptl_crystal_size_max          0.3
_exptl_crystal_size_mid          0.1
_exptl_crystal_size_min          0.05
_refine_diff_density_max         5.092
_refine_diff_density_min         -10.075
_refine_ls_extinction_method     none
_refine_ls_goodness_of_fit_ref   1.121
_refine_ls_hydrogen_treatment    constr
_refine_ls_matrix_type           full
_refine_ls_number_parameters     35
_refine_ls_number_reflns         1277
_refine_ls_number_restraints     0
_refine_ls_restrained_S_all      1.121
_refine_ls_R_factor_all          0.1182
_refine_ls_R_factor_gt           0.0956
_refine_ls_shift/su_max          0.000
_refine_ls_shift/su_mean         0.000
_refine_ls_structure_factor_coef Fsqd
_refine_ls_weighting_details
'w=1/[\s^2^(Fo^2^)+(0.0564P)^2^+177.1023P] where P=(Fo^2^+2Fc^2^)/3'
_refine_ls_weighting_scheme      calc
_refine_ls_wR_factor_gt          0.2107
_refine_ls_wR_factor_ref         0.2254
_reflns_number_gt                977
_reflns_number_total             1277
_reflns_threshold_expression     'I > 2\s(I)'
_cod_data_source_file            ps5046sup1.cif
_cod_data_source_block           shelx6
_cod_original_cell_volume        1680.92(17)
_cod_database_code               2107272
_shelx_space_group_comment
;
The symmetry employed for this shelxl refinement is uniquely defined
by the following loop, which should always be used as a source of
symmetry information in preference to the above space-group names.
They are only intended as comments.
;
_shelx_hkl_file
;
   0   1  -2    0.05    0.03
   1  -1  -2    0.10    0.09
   1   0  -2   -0.01    0.11
   0  -1   2    0.04    0.04
   1  -1  -3    2.14    0.37
   0   1   3    1.33    0.27
   1   0  -3    1.55    0.33
   0   1   4    0.00    0.15
  -1   1   4   -0.06    0.22
   1   0   4    0.05    0.13
   1   1   1   19.89    0.67
   1   1  -1   20.48    0.79
   1   1  -1   18.33    0.68
   1   1  -2  125.49    2.26
   1   1   2  125.68    2.15
   1  -2  -2  122.77    2.64
   1  -2  -2  118.05    2.08
   1  -2   2  125.57    2.01
   1   1  -2  125.34    2.95
   1  -2  -3   53.11    1.80
  -1   2   3   48.57    1.84
   1   1   3   55.23    1.10
   1  -2   3   55.02    1.08
   2  -1  -3   50.52    1.91
   1  -2  -3   51.49    1.15
   1   1  -3   51.77    1.96
   1   1  -3   54.81    1.21
   1   1   4  283.13    3.96
   1  -2  -4  282.14    4.18
   1   1  -4  292.05    4.08
  -1   2   4  288.94    5.84
   1  -2   4  277.28    4.13
   1   1   4  283.43    5.47
   0   2   1    4.23    0.27
   0   2  -1    4.52    0.35
   0   2  -1    4.50    0.30
   0   2  -2    0.17    0.08
   2   0  -2    0.15    0.18
   0   2   2    0.34    0.18
   0   2   2    0.23    0.07
   0  -2   2    0.11    0.05
   2  -2  -3    3.27    0.45
   0   2   3    3.15    0.39
   0  -2   3    3.25    0.26
   2   0  -3    3.69    0.52
   0   2  -3    3.53    0.26
   0  -2  -3    3.86    0.31
   0   2   3    3.43    0.22
   2  -2   4    0.18    0.06
   2  -2  -4    0.33    0.20
   0   2   4    0.21    0.19
   2   0  -4    0.36    0.29
   2   0   4    0.28    0.08
   2   0  -4    0.09    0.07
   2  -2  -4    0.12    0.07
   2   0  -5    6.12    0.78
  -1   3   0    0.93    0.15
   2   1   0    0.73    0.18
   1   2   0    0.83    0.15
   1   2  -1    5.09    0.44
   1   2   1    5.92    0.41
  -1   3   1    5.65    0.33
   2   1   1    4.95    0.44
   2   1  -1    5.13    0.45
  -1   3  -1    5.60    0.35
   1   2  -1    5.59    0.43
  -1  -2  -2    0.34    0.16
   2   1   2    0.20    0.08
   1   2   2    0.16    0.08
   1  -3  -2    0.36    0.13
  -1  -2   2    0.11    0.09
   1  -3  -2    0.32    0.10
   1  -3   2    0.17    0.08
   1   2  -2    0.41    0.18
   1   2  -2    0.26    0.11
   2   1  -2    0.22    0.11
   2   1  -2    0.23    0.19
   1   2  -3    8.57    0.50
   1   2   3    8.01    0.42
   2   1  -3    8.81    0.53
   2  -3  -3    7.54    0.46
   2  -3  -3    7.09    0.64
   1   2  -3    7.42    0.74
   1  -3  -3    7.57    0.48
   1  -3   3    7.78    0.42
   2   1   3    7.42    0.45
   3  -1  -3    8.06    0.74
   3  -2  -3    7.08    0.65
   2  -3   3    7.98    0.41
   2   1  -3    8.34    0.78
   1  -3  -4    0.09    0.08
   1   2   4    0.22    0.20
   2   1  -4    0.22    0.20
   3  -1  -4    0.00    0.14
   1  -3   4    0.21    0.09
   2  -3   4    0.11    0.08
   2  -3  -4    0.45    0.22
   2  -3  -4    0.07    0.08
  -1   3   4   -0.02    0.13
   2   1  -4    0.24    0.11
   1   2   4    0.12    0.06
   2   1   4    0.19    0.08
   3  -2  -4    0.09    0.19
   1   2  -4    0.18    0.09
   2  -3   5    0.93    0.13
   2   1  -5    1.07    0.36
   3  -1  -5    0.90    0.15
   1  -3   5    0.83    0.14
   2  -3  -5    1.03    0.15
   3  -1  -5    1.35    0.39
   1  -3  -5    1.08    0.16
   2   1   5    0.99    0.12
   3  -2  -5    0.79    0.30
   3  -1   5    0.72    0.14
   2   1  -5    0.83    0.12
   0   3   0   90.16    1.93
   0   3   0   88.86    1.53
   0   3   1    0.11    0.09
   0   3  -1    0.13    0.09
   0   3   2  574.29    8.12
   0  -3   2  556.41    8.25
   0  -3  -2  584.10    8.54
   0   3  -2  555.24    8.28
   0   3   2  580.52    8.08
   0   3  -3    0.35    0.11
   3  -3  -3    0.25    0.14
   0   3   3    0.25    0.09
   0   3   3    0.06    0.10
   3   0  -3    0.02    0.16
   0  -3  -3   -0.03    0.09
   0  -3   3    0.12    0.10
   3   0  -4   17.23    1.25
   0   3   4   15.78    1.02
   3   0  -4   18.25    0.81
   3   0   4   19.14    0.80
   0  -3   4   19.45    0.81
   0  -3  -4   19.59    0.86
   3  -3  -4   16.48    1.13
   3   0   5    0.48    0.12
   3  -3   5    0.20    0.08
   3  -3  -5   -0.01    0.17
   3   0  -5    0.14    0.09
   3  -3  -5    0.16    0.08
   3   0  -5    0.70    0.30
   3   0  -6  207.73    5.53
   2   2   0    2.56    0.34
   2   2   1  614.99    9.32
   2   2  -1  629.01    9.44
   2   2  -2  748.78   11.05
   2  -4  -2  739.02   10.74
   2   2  -2  730.21   11.53
   2   2   2  729.93   10.87
   2   2   3  363.91    5.77
   2  -4  -3  359.49    6.37
   2  -4   3  369.22    5.65
   2   2  -3  367.77    7.02
   2   2  -3  363.56    5.99
   2  -4  -3  359.08    5.94
   2   2  -4    8.55    0.89
   2  -4  -4   10.05    0.86
   2  -4  -4   10.29    0.62
   2   2  -4   10.11    0.61
   4  -2  -4   10.28    0.95
   2   2   4   10.08    0.56
   2  -4   4    9.75    0.53
   2  -4   5  172.15    2.97
   2  -4  -5  169.22    3.09
   4  -2  -5  163.21    4.52
   2   2   5  169.17    2.85
   2   2  -5  165.52    2.99
   4  -2   6  194.30    3.26
   2  -4  -6  188.29    3.23
   2  -4   6  192.31    3.22
   4  -2  -6  188.22    3.24
   1   3   0    8.08    0.56
  -1   4   0    9.04    0.52
  -1   4   1   28.64    0.95
  -1   4  -1   30.02    1.03
   1   3  -1   28.86    1.17
   1   3   1   28.66    1.05
   1   3  -1   27.61    1.10
  -1   4   2    3.12    0.29
  -1   4  -2    3.26    0.33
   1   3  -2    3.61    0.49
   3   1   2    3.37    0.41
   3   1  -2    2.73    0.35
   1  -4  -2    3.42    0.37
   1   3   2    3.28    0.33
  -1  -3  -2    3.59    0.44
   1  -4   2    3.66    0.34
  -1  -3   2    3.11    0.35
   1   3  -2    3.37    0.37
   3   1  -3    9.17    0.66
   1  -4   3   10.40    0.58
   1   3  -3   11.50    0.68
  -1  -3  -3   10.76    0.76
  -1  -3   3   10.45    0.69
   1   3  -3   10.92    0.92
   1  -4  -3   10.73    0.68
   3   1  -3   11.42    0.92
   3   1   3   10.84    0.70
   1   3   3   10.97    0.58
   3  -4  -3    9.65    0.73
   1  -4  -4    0.62    0.19
   3   1  -4    0.55    0.18
   1   3   4    0.46    0.13
   4  -1  -4    0.58    0.29
   1   3  -4    0.50    0.15
   3  -4   4    0.54    0.15
   4  -3  -4    0.45    0.23
   3  -4  -4    0.34    0.22
   3   1   4    0.58    0.16
   1  -4   4    0.32    0.13
   1   3   4    0.51    0.20
   3  -4  -4    0.69    0.20
   3   1  -4    0.68    0.32
   3  -4  -5    9.82    0.57
   3   1  -5   10.71    0.59
   3  -4  -5   11.04    1.01
   4  -1  -5   11.25    0.65
   4  -3  -5   10.26    1.02
   4  -1  -5   10.08    1.03
   3  -4   5    9.99    0.51
   1  -4   5   10.47    0.59
   1   3   5   10.24    0.48
   3   1   5   10.91    0.55
   1  -4  -5   10.25    0.61
   1   3  -5    9.85    0.54
   3   1  -5   10.51    1.05
   3  -4  -6    0.08    0.07
   4  -3  -6    0.50    0.39
   4  -1  -6   -0.05    0.09
   4  -1   6    0.08    0.07
   3   1  -6    0.12    0.08
   4  -3   6    0.06    0.06
   3   1   6    0.13    0.07
   3  -4   6    0.17    0.09
   4  -1  -6    0.35    0.30
   4  -3  -6    0.14    0.08
   0   4   0    2.74    0.32
   0  -4   1   34.74    1.30
   0   4   1   32.46    1.11
   0   4  -1   33.13    1.20
   0   4   2    1.36    0.18
   0   4   2    1.71    0.24
   0   4  -2    1.52    0.27
   0  -4  -2    1.95    0.31
   0  -4   2    1.71    0.34
   0  -4   2    1.45    0.25
   0  -4  -3   29.06    1.30
   0   4   3   27.89    0.96
   0  -4   3   28.82    1.12
   0   4   3   25.26    1.10
   0   4  -3   27.06    1.08
   0  -4   4    0.76    0.19
   0  -4  -4    1.49    0.30
   4   0  -4    0.93    0.24
   0   4   4    0.40    0.19
   4  -4  -4    0.73    0.29
   0   4   4    1.03    0.19
   0   4  -4    1.15    0.22
   4   0  -4    0.52    0.29
   4   0  -5    7.17    0.54
   0  -4  -5    7.54    0.59
   4  -4  -5    6.92    0.83
   4  -4   5    7.49    0.44
   4   0   5    6.74    0.50
   0  -4   5    6.46    0.52
   4  -4  -5    7.08    0.52
   0   4   5    6.89    0.75
   4   0  -5    6.31    0.83
   4   0  -6    0.45    0.14
   4   0   6    0.24    0.10
   4  -4  -6    0.20    0.10
   4  -4   6    0.32    0.11
   2   3   0   12.89    0.82
   3   2   0   11.88    0.87
   2   3  -1    2.14    0.34
   3   2   1    2.18    0.37
   3   2  -1    1.61    0.33
   2   3   1    2.02    0.31
   3   2   2   10.59    0.76
   2   3  -2    9.12    0.70
  -2  -3  -2    8.44    0.76
   2  -5  -2    9.43    0.52
   2   3  -2    8.22    0.74
   2   3   2    8.98    0.64
   2  -5  -2   10.64    0.69
   3   2  -2    8.87    0.71
  -2  -3   2    8.82    0.72
   3  -5   2    9.09    0.55
   2  -5   2    9.30    0.58
   3  -5  -2    9.08    0.63
   3  -5  -3    1.10    0.24
   3   2  -3    1.41    0.29
   3  -5  -3    1.53    0.31
   2   3  -3    1.43    0.26
   2  -5  -3    1.43    0.27
   2   3   3    1.31    0.22
   2   3  -3    1.17    0.34
   3   2   3    1.81    0.31
   3  -5   3    1.56    0.24
   2  -5   3    1.48    0.24
   3   2  -3    1.75    0.39
   2  -5  -3    1.83    0.31
   3   2   4    5.00    0.46
   3  -5  -4    5.26    0.64
   2  -5   4    4.67    0.42
   2   3  -4    4.64    0.46
   3  -5  -4    4.73    0.50
   3   2  -4    5.12    0.72
   3  -5   4    4.38    0.40
   2   3   4    4.89    0.42
   5  -3  -4    4.67    0.63
   3   2  -4    3.86    0.43
   2  -5  -4    4.01    0.44
   2   3  -4    5.15    0.71
   5  -2  -4    4.68    0.65
   5  -3  -5    0.38    0.30
   3   2  -5    0.38    0.29
   2  -5  -5    0.44    0.18
   2  -5   5    0.24    0.12
   2   3   5    0.27    0.12
   3   2   5    0.27    0.14
   3  -5  -5    0.41    0.16
   3   2  -5    0.33    0.14
   3  -5  -5    0.47    0.23
   3  -5   5    0.34    0.14
   2   3  -5    0.22    0.13
   5  -2  -5    0.50    0.25
   5  -2  -6    1.63    0.25
   5  -2  -6    2.49    0.60
   3   2  -6    1.63    0.22
   2  -5   6    1.47    0.24
   2   3   6    1.87    0.22
   2  -5  -6    1.58    0.25
   3  -5  -6    1.30    0.22
   3   2   6    1.80    0.22
   2   3  -6    1.61    0.22
   5  -3  -6    2.74    0.61
   3  -5   6    1.65    0.22
   5  -2  -7    0.43    0.27
   5  -3  -7    0.91    0.45
   1  -5   0  237.87    3.62
   1   4   0  232.81    3.85
   1   4   0  235.44    4.43
  -1   5   0  232.30    4.14
   1   4   1   45.57    1.50
  -1   5   1   44.62    1.36
   1  -5   1   45.67    1.35
  -1   5  -1   47.06    1.47
   1   4  -1   45.64    1.58
   1   4  -1   46.69    1.61
  -1  -4  -2  140.53    3.50
   1  -5  -2  138.79    3.18
  -1   5   2  136.21    2.75
   1   4  -2  137.82    3.15
   1   4   2  141.17    2.93
   1  -5   2  133.92    2.91
  -1   5  -2  140.14    2.99
   1   4  -2  132.84    3.37
  -1  -4   2  136.62    3.13
   1  -5   2  132.98    3.11
   1   4   3   45.89    1.37
   1  -5  -3   46.35    1.70
   4   1   3   47.36    1.78
   1   4  -3   46.68    2.02
  -1  -4   3   47.70    1.67
   4   1  -3   45.67    1.70
   1   4  -3   47.98    1.64
   1   4   3   47.26    1.45
   1  -5   3   48.03    1.52
  -1  -4  -3   52.24    1.96
  -1  -4  -4  176.05    3.95
   1  -5   4  171.68    3.41
   1   4  -4  172.41    3.49
   4   1   4  167.06    3.59
   4  -5  -4  166.87    4.13
   4   1  -4  171.58    3.68
  -1  -4   4  185.43    3.80
   1  -5  -4  173.22    3.75
   4   1  -4  172.92    4.66
   1   4   4  164.73    3.66
   5  -1  -4  166.39    4.45
   1   4   4  172.62    3.23
   5  -4  -5   20.98    1.48
   5  -1  -5   19.49    1.50
   4   1  -5   23.55    1.06
   4   1  -5   19.87    1.51
   1   4   5   18.38    1.22
   4  -5  -5   21.59    1.44
   1   4  -5   21.76    0.95
   4  -5   5   21.78    0.89
   4   1   5   23.00    0.99
   1  -5   5   21.95    1.01
   1   4   5   22.49    0.86
   4  -5  -5   20.72    1.02
   1  -5  -5   21.02    1.06
   5  -1  -6   60.61    2.84
   4  -5  -6   61.56    2.67
   4   1   6   59.78    1.54
   1  -5  -6   57.67    1.76
   4   1  -6   54.75    2.67
   1  -5   6   56.72    1.69
   5  -1  -6   60.07    1.70
   4   1  -6   59.68    1.62
   5  -1   6   56.92    1.60
   4  -5   6   59.48    1.55
   4  -5  -6   50.73    1.53
   5  -4  -6   58.86    2.70
   5  -4  -7    7.07    0.95
   5  -1  -7    7.76    1.06
   0   5   0    1.49    0.27
   0   5  -1    1.22    0.26
   0   5   1    1.74    0.28
   0  -5   1    1.50    0.30
   0  -5   2    0.60    0.20
   0   5   2    0.75    0.18
   0   5  -2    0.76    0.22
   0  -5   2    0.66    0.19
   0  -5  -2    0.98    0.24
   0   5  -3    2.12    0.34
   0   5   3    1.58    0.26
   0   5   3    1.61    0.26
   0  -5   3    2.15    0.35
   0  -5  -3    1.83    0.38
   0   5   4    0.51    0.17
   0  -5   4    0.58    0.19
   0   5   4    0.54    0.16
   0   5  -4    0.28    0.16
   5   0  -4    1.10    0.42
   5  -5  -4    0.88    0.34
   0  -5  -4    0.47    0.22
   5   0  -5    4.52    0.52
   5   0  -5    5.21    0.80
   0  -5  -5    4.74    0.55
   0   5   5    3.64    0.55
   0  -5   5    5.01    0.52
   5  -5  -5    3.94    0.63
   5   0   5    5.09    0.51
   5   0  -6    0.06    0.11
   5   0   6    0.00    0.10
   5   0  -6    0.76    0.44
   5  -5  -6    0.93    0.40
   5  -5   6    0.01    0.09
   5  -5  -6   -0.09    0.15
   5   0  -7    0.11    0.30
   3   3   0  107.54    2.95
   3   3  -1    3.89    0.51
   3   3   1    4.29    0.52
   3   3  -2  308.86    5.84
   3  -6   2  301.08    5.14
   3  -6  -2  304.50    5.50
   3   3  -2  299.95    5.78
   3   3   2  296.43    5.62
   3  -6  -3    5.13    0.56
   3  -6  -3    4.95    0.52
   3   3  -3    5.18    0.68
   3   3   3    5.38    0.54
   3   3  -3    4.71    0.55
   3  -6   3    5.06    0.47
   3  -6  -4   50.52    1.86
   3  -6  -4   51.74    2.03
   3   3  -4   55.00    1.85
   3   3  -4   54.89    2.45
   3   3   4   52.28    1.69
   3  -6   4   52.92    1.64
   3   3  -5    3.33    0.66
   3  -6  -5    3.27    0.43
   3   3   5    3.90    0.40
   3  -6   5    3.36    0.39
   6  -3  -5    3.24    0.63
   3   3  -5    2.87    0.39
   6  -3  -6   99.93    3.79
   3   3  -6   98.25    2.27
   3   3   6   96.12    2.13
   3  -6   6   92.79    2.24
   3  -6  -6   91.25    2.35
   6  -3  -7    2.16    0.61
   2   4   0   15.99    0.97
   4   2   0   16.34    1.13
   4   2   1    1.52    0.38
   2   4  -1    1.36    0.28
   2   4   1    1.21    0.25
   2   4  -1    0.94    0.24
   4   2  -1    1.36    0.34
   2   4  -2   18.22    1.15
   2  -6  -2   20.04    0.74
   4   2   2   17.55    1.13
   2   4  -2   18.30    1.08
   4   2  -2   17.99    1.12
   2   4   2   17.09    0.95
   2  -6  -2   17.78    1.02
  -2  -4  -2   19.25    1.27
   2  -6   2   18.66    0.93
  -2  -4   2   17.55    1.06
   2   4   3    0.36    0.17
  -2  -4   3    0.56    0.24
   4  -6  -3    0.49    0.19
   4   2  -3    0.55    0.26
   2   4  -3    0.97    0.35
   2   4  -3    0.40    0.16
  -2  -4  -3    0.54    0.28
   4  -6   3    0.44    0.16
   4   2   3    0.63    0.22
   2  -6  -3    0.35    0.20
   4   2  -3    0.20    0.13
   2  -6   3    0.52    0.20
   2  -6  -4   12.90    0.90
   4   2   4   13.07    0.84
   4   2  -4   14.08    1.22
   4  -6  -4   14.48    0.98
   2  -6   4   13.13    0.80
   4  -6   4   14.33    0.79
   2   4   4   13.76    0.80
   4   2  -4   13.59    0.91
   4  -6  -4   13.47    1.02
   2   4  -4   14.00    0.89
   2   4  -4   14.31    1.20
   2  -6  -5    0.16    0.20
   4   2  -5    0.39    0.18
   4   2   5    0.37    0.15
   4  -6  -5    0.15    0.13
   4   2  -5    0.54    0.33
   6  -2  -5    0.17    0.20
   2  -6   5    0.20    0.10
   2   4   5    0.52    0.25
   4  -6   5    0.45    0.18
   2   4   5    0.56    0.16
   2   4  -5    0.39    0.21
   4  -6  -5    0.28    0.22
   6  -4  -5   -0.01    0.20
   4   2  -6    6.38    0.53
   2  -6   6    5.82    0.53
   4   2  -6    6.71    0.96
   4  -6  -6    4.84    0.48
   4  -6   6    5.36    0.48
   4   2   6    5.79    0.48
   6  -4  -6    6.89    0.95
   6  -2  -6    7.05    1.00
   2  -6  -6    5.27    0.53
   2   4   6    5.45    0.44
   2   4  -6    5.29    0.47
   6  -4  -7    0.93    0.45
   6  -2  -7    0.56    0.40
   6  -2  -8    3.69    0.87
   1   5   0   24.55    0.96
   1  -6   0   26.64    0.93
  -1   6   0   26.31    1.12
   1   5   0   24.50    1.20
  -1   6  -1    1.96    0.32
   1  -6   1    2.10    0.31
   1   5  -1    2.19    0.34
  -1   6   1    1.80    0.28
   1   5  -1    2.00    0.35
   1   5   1    2.07    0.33
   1  -6   2   22.28    1.10
   1  -6   2   20.66    1.13
  -1   6  -2   21.67    1.11
  -1   6   2   22.86    1.02
  -1  -5   2   21.50    1.16
  -1  -5  -2   24.16    1.41
   1   5   2   22.47    1.07
   1   5  -2   22.97    1.20
   1  -6  -2   23.16    1.24
   1   5  -2   21.40    1.22
   1  -6  -3    0.75    0.24
  -1   6   3    0.50    0.17
  -1  -5  -3    0.29    0.19
  -1  -5   3    0.71    0.22
  -1   6  -3    0.63    0.20
   5   1   3    0.14    0.15
   1   5  -3    0.42    0.18
   5   1  -3    0.74    0.26
   1   5   3    0.70    0.16
   1   5   3    0.61    0.20
   1  -6   3    0.60    0.19
  -1  -5  -4   13.40    1.03
   5   1  -4   13.67    0.97
   1  -6   4   14.58    0.89
   5   1   4   14.84    0.99
   5  -6  -4   15.03    1.09
  -1  -5   4   14.97    0.98
   5   1  -4   15.42    1.28
   1   5   4   12.59    0.82
   1   5   4   15.16    0.83
   1   5  -4   15.35    0.93
   1  -6  -4   14.69    1.03
   1   5   5    0.07    0.14
   5  -6   5    0.81    0.20
   1  -6  -5    0.58    0.26
   5   1  -5    1.16    0.45
   1   5  -5    0.97    0.24
   6  -5  -5    0.93    0.39
   5   1   5    0.96    0.26
   6  -1  -5    1.15    0.37
   5  -6  -5    0.63    0.32
   1   5   5    1.29    0.24
   5  -6  -5    0.88    0.27
   1  -6   5    0.98    0.26
   5   1  -5    0.99    0.30
   5   1  -6    7.34    1.01
   6  -5  -6    6.91    0.93
   5   1  -6    8.17    0.65
   5   1   6    7.59    0.59
   6  -1   6    7.51    0.65
   6  -1  -6    7.67    0.67
   6  -1  -6    9.23    1.15
   5  -6  -6    9.31    1.02
   5   1  -7    0.17    0.32
   6  -5  -7    0.68    0.41
   6  -1  -7    0.43    0.39
   6  -1  -8    4.48    0.93
   0   6   0 1000.00   14.66
   0   6   1    0.97    0.26
   0   6  -1    0.44    0.20
   0  -6   2   27.03    1.29
   0  -6  -2   26.91    1.45
   0   6  -2   25.59    1.29
   0  -6   2   26.19    1.44
   0   6   2   26.14    1.16
   0   6  -3    0.61    0.23
   0   6   3    0.49    0.17
   0  -6   3    0.57    0.23
   0  -6  -3    0.75    0.30
   0   6   4  549.41    8.42
   0  -6   4  528.55    8.87
   0  -6  -4  541.35    9.49
   0   6  -4  527.84    8.78
   0  -6   5    0.65    0.24
   6   0  -5    0.10    0.17
   6   0  -5    0.67    0.35
   6  -6  -5    0.74    0.32
   6   0   5    0.59    0.24
   0  -6  -5    0.24    0.17
   6  -6  -6    5.64    0.86
   6   0  -6    6.17    0.95
   6   0  -6    4.47    0.53
   6   0   6    5.58    0.56
   6  -6  -7   -0.47    0.35
   6   0  -7    0.26    0.41
   3   4   0    8.43    0.78
   4   3   0    7.23    0.77
   4   3   1    2.92    0.51
   3   4   1    4.25    0.55
   4   3  -1    3.56    0.53
   3   4  -1    3.71    0.52
  -3  -4   2   10.34    0.91
   3   4  -2    9.32    0.82
   3   4   2   10.97    0.84
   3  -7  -2    9.81    0.81
   4  -7  -2    9.67    0.81
   3   4  -2   11.19    0.92
   4   3  -2    8.46    0.81
   4   3   2    9.73    0.85
   3  -7   2    9.43    0.70
   4  -7   2    9.72    0.71
   3  -7  -3    1.31    0.33
   4   3  -3    1.16    0.31
   3   4  -3    1.03    0.29
   3  -7   3    1.47    0.28
   4   3  -3    2.01    0.46
   3   4  -3    1.40    0.38
   4   3   3    1.74    0.36
   3  -7  -3    1.59    0.29
   3   4   3    1.28    0.26
   4  -7  -3    1.54    0.35
   4  -7   3    1.50    0.28
   4   3  -4    6.49    0.65
   3   4   4    7.63    0.65
   4  -7  -4    7.42    0.75
   4   3   4    8.18    0.70
   3  -7   4    7.64    0.65
   4  -7   4    7.59    0.64
   3  -7  -4    7.68    0.72
   3   4  -4    6.44    0.64
   3  -7  -4    7.27    0.76
   4  -7  -4    6.52    0.72
   3   4  -4    8.85    0.98
   4   3  -4    6.55    0.86
   3  -7   5    3.16    0.42
   3  -7  -5    3.37    0.50
   4   3  -5    4.19    0.52
   4  -7  -5    3.35    0.56
   4   3   5    3.56    0.45
   3   4  -5    3.88    0.71
   7  -3  -5    4.40    0.74
   4  -7  -5    3.23    0.48
   7  -4  -5    3.00    0.60
   3   4  -5    3.78    0.48
   4   3  -5    3.53    0.68
   3   4   5    4.13    0.47
   4  -7   5    3.23    0.43
   4   3  -6    3.64    0.45
   7  -4  -6    4.88    0.87
   3   4  -6    3.58    0.42
   7  -3  -6    4.49    0.84
   4   3   6    4.17    0.46
   3   4   6    4.09    0.42
   4   3  -6    6.20    0.96
   7  -4  -7    0.30    0.38
   7  -3  -7    0.23    0.30
   7  -3  -8    1.97    0.74
   7  -4  -8    0.73    0.48
   5   2   0  308.03    6.54
  -2   7   0  309.35    5.47
   2   5   0  315.03    5.96
   2   5  -1   40.29    1.72
   2   5   1   44.20    1.71
   2   5  -1   40.10    1.61
   5   2   1   45.39    2.11
  -2   7  -1   40.78    1.51
   5   2  -1   41.93    1.94
  -2   7   1   42.98    1.46
   5   2   2   43.81    2.04
   2   5   2   46.30    1.72
  -2  -5   2   46.26    1.91
   2   5  -2   47.29    1.95
   2   5  -2   41.22    1.78
   2  -7   2   45.84    1.68
  -2  -5  -2   44.78    2.17
   2  -7  -2   45.88    1.87
   5   2  -2   45.41    1.96
   2  -7   2   43.40    1.66
  -2  -5  -3   43.90    2.14
   2  -7   3   43.73    1.67
   2  -7  -3   40.19    1.85
   2   5   3   46.65    1.68
   5   2   3   46.16    1.97
   2   5  -3   43.64    2.03
   5   2  -3   43.89    1.90
  -2  -5   3   41.93    1.84
   2   5  -3   44.86    1.81
   5   2  -4  203.06    5.29
   5   2  -4  192.80    4.38
   5   2   4  189.41    4.23
   5  -7  -4  192.26    4.45
   2  -7   4  188.33    4.07
   5  -7   4  190.17    3.91
   2   5   4  184.63    3.80
   2  -7  -4  175.25    4.42
   2   5  -4  198.67    5.17
  -2  -5   4  191.71    4.54
   2   5  -4  194.62    4.28
   5  -7  -4  192.83    4.71
   2   5   4  207.95    4.08
   2  -7   5   17.74    1.02
   2  -7  -5   17.35    1.15
   5   2  -5   21.51    1.23
   5   2   5   22.69    1.17
   5  -7   5   18.90    0.98
   5  -7  -5   21.19    1.42
   7  -2  -5   18.92    1.53
   5   2  -5   19.86    1.60
   2   5  -5   20.73    1.10
   5  -7  -5   18.37    1.20
   7  -5  -5   20.77    1.54
   2   5   5   21.40    1.02
   2   5   5   15.45    1.07
   2   5  -6   28.58    1.23
   2   5   6   29.44    1.17
   5   2  -6   28.36    1.33
   5   2   6   29.37    1.27
   7  -5  -6   29.87    2.06
   5   2  -6   30.15    2.05
   7  -2  -6   30.67    2.13
   5  -7  -6   29.67    1.81
   5   2  -7    7.71    1.08
   7  -5  -7    6.91    1.03
   7  -2  -7    8.00    1.14
   7  -5  -8   52.41    3.00
   7  -2  -8   46.47    2.86
   1   6   0   31.40    1.45
   1   6   0   27.57    1.03
  -1   7   0   30.20    1.33
   1  -7   0   32.31    1.14
   1   6  -1    6.07    0.56
   1   6   1    4.73    0.28
  -1   7  -1    6.34    0.62
   1  -7   1    5.97    0.58
   1   6   1    6.27    0.62
   1   6  -1    6.64    0.68
  -1   7   1    6.78    0.59
   1   6  -2   22.60    1.28
  -1   7   2   23.28    1.11
   1  -7   2   19.98    1.19
  -1   7  -2   22.21    1.22
   1   6  -2   20.74    1.24
   1   6   2   21.72    1.14
   6   1   3    8.19    0.87
   1   6   3    7.28    0.46
   1   6  -3    8.85    0.78
  -1   7  -3    8.05    0.72
  -1   7   3    8.32    0.64
   6   1  -3    7.66    0.79
   1   6   3    8.60    0.68
   6   1  -4   12.65    1.20
   1   6  -4   10.50    0.85
   1   6   4    9.51    0.70
   6   1  -4   11.82    0.97
   6   1   4   11.35    0.96
   1   6   4   11.49    0.78
   7  -1  -5    1.95    0.52
   6   1   5    2.04    0.40
   6   1  -5    1.48    0.36
   1   6   5    1.28    0.32
   1   6  -5    1.91    0.35
   6   1  -5    2.23    0.57
   6  -7  -5    1.85    0.46
   7  -6  -5    2.69    0.58
   1   6   5    1.63    0.29
   6   1  -6    6.32    0.66
   6   1   6    5.71    0.59
   7  -1  -6    5.87    0.95
   7  -1  -6    4.90    0.59
   7  -1   6    5.00    0.60
   7  -6  -6    4.53    0.81
   6  -7  -6    4.85    0.78
   6   1  -6    6.24    0.96
   6  -7  -7    3.12    0.64
   7  -1  -7    2.29    0.63
   6   1  -7    3.57    0.77
   7  -6  -7    4.23    0.82
   7  -6  -8    2.98    0.85
   7  -1  -8    3.82    0.98
   0   7   0    4.61    0.55
   0   7   1    3.76    0.48
   0   7  -1    3.62    0.51
   0   7   2    2.13    0.36
   0  -7   2    1.79    0.36
   0   7  -2    2.27    0.43
   0   7   3    3.37    0.43
   0   7  -3    2.46    0.43
   0   7   4    1.20    0.28
   0   7  -4    1.04    0.33
   7   0  -5    0.04    0.20
   7  -7  -5    0.00    0.21
   7   0   5   -0.07    0.18
   7   0  -5    0.00    0.29
   7   0  -6    0.09    0.28
   7  -7  -6    0.82    0.40
   7   0  -6    0.07    0.17
   7   0   6    0.28    0.22
   7  -7  -7    0.79    0.39
   7   0  -7    1.36    0.49
   7   0  -8    1.34    0.62
   4   4   0   20.25    1.36
   4   4  -1  180.11    4.56
   4   4   1  186.23    4.61
   4   4  -2  314.45    6.52
   4   4   2  322.66    6.43
   4  -8  -3  130.21    2.93
   4   4  -3  130.54    3.60
   4   4   3  133.52    3.49
   4   4  -3  133.74    3.97
   4  -8  -4   22.10    1.30
   4   4   4   22.90    1.23
   4   4  -4   21.16    1.27
   4   4  -4   24.42    1.68
   4   4  -5   80.56    2.56
   4   4   5   81.96    2.43
   4   4  -5   78.57    3.29
   4   4  -6  128.88    4.48
   8  -4  -6  116.72    4.38
   4   4  -6  116.92    3.07
   4   4   6  121.35    2.96
   8  -4  -7   38.30    2.55
   8  -4  -8   12.16    1.47
   3   5   0   15.37    1.10
   5   3   0   17.27    1.32
   3   5  -1   16.07    1.15
   3   5   1   19.51    1.21
   5   3   1   16.57    1.30
   5   3  -1   18.65    1.34
   3   5  -2   13.46    1.04
   5   3   2   15.83    1.21
   5   3  -2   13.99    1.11
   3   5   2   15.55    1.05
   3   5  -2   15.90    1.15
   3   5  -3   13.16    1.02
   3   5   3   14.69    1.00
   5   3  -3   13.74    1.07
   3  -8  -3   14.75    0.77
   5   3   3   13.10    1.04
   3   5  -3   14.41    1.19
   5   3  -3   14.74    1.18
   3   5   4   10.16    0.81
   5   3  -4   10.44    0.91
   5   3   4   10.23    0.85
   5  -8  -4    9.49    0.86
   5   3  -4   10.32    1.12
   3   5  -4   10.16    1.06
   3   5  -4   10.13    0.86
   3   5   5    3.76    0.48
   5   3  -5    3.07    0.66
   5   3   5    3.52    0.47
   3   5  -5    3.27    0.48
   3   5   5    2.56    0.45
   3   5  -5    3.79    0.69
   5   3  -5    2.74    0.45
   5  -8  -5    3.78    0.62
   5   3  -6    6.22    0.97
   5   3   6    6.68    0.63
   5   3  -6    5.45    0.60
   3   5   6    6.25    0.59
   8  -3  -6    5.75    0.97
   8  -5  -6    5.56    0.95
   3   5  -6    5.31    0.56
   5  -8  -6    5.17    0.79
   5   3  -7    3.96    0.83
   8  -5  -7    5.28    0.95
   8  -3  -7    4.66    0.92
   8  -5  -8    2.15    0.63
   8  -3  -8    3.02    0.81
   2   6   0   29.60    1.52
   6   2   0   28.62    1.72
   2   6   0   30.63    1.20
  -2   8   0   30.50    1.35
   2  -8   0   31.84    1.05
   2   6   1   16.75    1.10
   6   2   1   15.20    1.30
   2   6  -1   14.88    0.98
   6   2  -1   14.73    1.20
  -2   8   1   15.95    0.95
   2   6  -1   14.72    1.07
   2  -8   1   15.29    0.86
  -2   8  -1   15.07    0.98
   2   6  -2   23.17    1.38
   2   6   2   24.84    1.32
   2  -8   2   25.44    1.29
   6   2  -2   24.33    1.48
   6   2   2   24.65    1.65
   2   6  -2   27.90    1.52
   2   6  -3    9.17    0.85
   2   6   3    9.80    0.82
   6   2  -3    8.59    0.87
   2   6  -3    8.04    0.87
   6   2   3    9.56    0.97
   2   6   4   13.44    0.78
   6   2  -4   12.94    1.04
   6   2   4   13.67    1.05
   6   2  -4   13.43    1.26
   2   6  -4   13.91    1.03
   2   6   4   14.36    0.95
   6   2   5    9.43    0.82
   2   6   5    6.33    0.66
   6  -8  -5    8.26    0.93
   6   2  -5    8.89    0.84
   6   2  -5    8.69    1.09
   2   6  -5    8.22    0.76
   2   6   5    8.27    0.69
   2   6  -6    5.60    0.58
   6   2   6    5.54    0.59
   6   2  -6    4.74    0.95
   8  -6  -6    5.63    0.95
   8  -2  -6    5.44    0.94
   6   2  -6    5.64    0.63
   2   6   6    5.10    0.52
   6  -8  -6    6.66    0.90
   8  -6  -7    0.70    0.39
   6   2  -7    0.71    0.48
   8  -2  -7    0.42    0.45
   8  -6  -8    4.09    0.88
   8  -2  -8    4.17    0.94
   1   7   0  185.12    4.34
  -1   8   0  181.05    4.10
   1   7  -1    0.52    0.23
   1   7   1    0.73    0.25
  -1   8  -1    0.97    0.31
  -1   8   1    0.77    0.25
   1  -8   1    0.90    0.24
   1  -8   2   55.75    2.21
  -1   8  -2   56.87    2.19
  -1   8   2   57.20    1.97
   1   7  -2   54.24    2.18
   1   7   2   58.55    2.05
  -1   8   3    1.62    0.33
   7   1  -3    0.84    0.35
  -1   8  -3    0.97    0.29
   7   1   3    0.84    0.33
   1   7   3    1.28    0.30
   1   7  -3    1.14    0.32
   1   7  -4  126.29    3.49
   7   1   4  130.72    3.88
   7   1  -4  125.15    3.67
   1   7   4  132.01    3.26
   7   1   5    0.39    0.24
   1   7   5   -0.01    0.15
   7   1  -5    0.42    0.24
   8  -1  -5   -0.26    0.30
   1   7  -5    0.24    0.15
   7   1  -5    0.04    0.28
   7   1  -6   29.80    1.57
   7   1   6   32.39    1.56
   8  -1  -6   28.15    1.57
   8  -1   6   30.17    1.63
   7  -8  -6   30.53    1.99
   7   1  -6   29.31    2.14
   8  -1  -6   29.13    2.13
   8  -7  -6   29.95    2.09
   8  -1  -7    0.58    0.51
   7  -8  -7    0.10    0.30
   7   1  -7    0.19    0.27
   8  -7  -7    0.08    0.36
   7   1  -8   38.61    2.73
   8  -7  -8   37.05    2.49
   8  -1  -8   37.14    2.63
   0   8   0    0.24    0.16
   0   8  -1   10.00    0.91
   0   8   1    9.20    0.81
   0   8  -2   -0.12    0.30
   0   8   2    0.00    0.16
   0   8  -3    5.64    0.69
   0   8   3    6.30    0.65
   0   8  -4   -0.07    0.15
   0   8   4    0.17    0.17
   8   0   5    6.52    0.82
   8   0  -5    5.59    0.90
   8   0  -5    7.39    0.85
   8  -8  -6    0.61    0.44
   8   0  -6   -0.06    0.22
   8   0  -6   -0.06    0.31
   8   0   6   -0.28    0.28
   8   0  -7    0.49    0.36
   8  -8  -7    0.83    0.43
   8  -8  -8    0.33    0.39
   8   0  -8    0.94    0.48
   5   4   0    0.33    0.21
   4   5   0    0.33    0.20
   5   4  -1   14.75    1.23
   5   4   1   15.81    1.30
   4   5   1   15.65    1.21
   4   5  -1   15.97    1.25
   5   4  -2    0.72    0.31
   5   4   2    0.80    0.32
   4   5  -2    0.67    0.23
   4   5   2    0.86    0.24
   4   5  -2    0.85    0.35
   4   5  -3    6.98    0.79
   4   5   3    7.40    0.75
   4   5  -3    7.74    0.92
   5   4  -3    6.67    0.79
   5   4   3    8.35    0.86
   5   4  -3    7.73    0.92
   4  -9  -3    8.36    0.63
   4   5  -4    0.69    0.37
   5   4   4    0.34    0.22
   5  -9  -4    0.66    0.26
   5   4  -4    0.36    0.18
   5   4  -4    0.33    0.26
   4  -9  -4    0.22    0.18
   4   5  -4    0.49    0.24
   4   5   4    0.17    0.22
   4   5  -5    5.67    0.68
   4   5   5    6.12    0.67
   4   5  -5    6.47    0.95
   5   4  -5    6.67    0.74
   5   4   5    7.05    0.71
   5  -9  -5    6.63    0.78
   5   4  -5    8.03    1.06
   9  -4  -6    0.97    0.56
   5   4  -6    0.29    0.57
   5   4  -6   -0.14    0.18
   5   4   6    0.21    0.21
   9  -5  -6    0.71    0.55
   4   5  -6    0.06    0.17
   4   5   6    0.08    0.15
   9  -4  -7    0.78    0.56
   9  -5  -7    1.35    0.59
   9  -4  -8   -0.62    0.60
   9  -5  -8    0.37    0.49
   9  -4  -9    1.03    0.72
   9  -5  -9    2.26    0.75
   3   6   0   29.27    1.62
   6   3   0   27.92    1.80
   6   3  -1    5.85    0.78
   6   3   1    5.60    0.82
   3   6   1    5.71    0.68
   3   6  -1    5.26    0.60
   3   6  -1    5.68    0.74
   3   6  -2  221.86    5.22
   6   3  -2  222.59    5.41
   6   3   2  217.28    5.64
   3  -9   2  213.73    4.64
   3   6  -2  226.11    5.20
   3   6   2  227.22    5.02
   3   6  -3    2.92    0.52
   3   6   3    2.62    0.46
   6   3   3    3.80    0.62
   6   3  -3    3.66    0.59
   3   6  -3    3.87    0.69
   3   6  -4   20.16    1.31
   3   6   4   20.28    1.23
   6   3  -4   20.63    1.38
   6   3   4   21.26    1.37
   3   6  -4   19.00    1.47
   6   3  -4   20.21    1.60
   6   3  -5    1.98    0.59
   6  -9  -5    1.28    0.38
   6   3  -5    1.09    0.36
   6   3   5    1.38    0.36
   3   6  -5    1.35    0.37
   3   6   5    0.97    0.30
   6   3  -6   85.89    2.78
   6   3   6   82.29    2.59
   6  -9  -6   88.94    3.23
   6   3  -6   89.84    3.85
   9  -3  -6   85.11    3.79
   3   6   6   84.31    2.51
   3   6  -6   80.49    2.60
   9  -6  -6   82.64    3.62
   9  -3  -7    0.35    0.38
   6   3  -7    0.84    0.48
   9  -6  -7    0.31    0.41
   9  -3  -8   12.01    1.52
   9  -6  -8   13.09    1.60
   9  -3  -9    0.77    0.51
   9  -6  -9    0.91    0.60
   2   7   0    0.51    0.22
  -2   9   0    0.57    0.26
   7   2   0    0.68    0.32
   2   7   0    0.46    0.16
   2  -9   0    0.47    0.17
   2   7  -1    5.51    0.70
   2   7   1    6.39    0.71
   7   2  -1    4.95    0.72
   7   2   1    5.90    0.86
   2   7  -1    5.48    0.60
   2  -9   1    5.23    0.56
   2   7   1    4.88    0.38
  -2   9   1    5.82    0.61
  -2   9  -1    7.28    0.72
   2   7  -2    0.63    0.26
   2   7   2    0.63    0.26
   7   2   2    0.14    0.40
   7   2  -2   -0.13    0.27
   2   7  -2    0.88    0.28
   2  -9   2    0.54    0.20
   2   7  -3    7.11    0.85
   2   7   3    5.28    0.34
   7   2   3    5.77    0.83
   7   2  -3    5.63    0.75
   2   7  -3    6.31    0.77
   2   7   3    6.30    0.70
   2   7   4    0.74    0.29
   7   2  -4    1.32    0.44
   2   7  -4    1.24    0.36
   7   2  -4    1.06    0.32
   2   7   4    0.32    0.15
   7   2   4    0.30    0.25
   2   7  -5    2.13    0.41
   7   2  -5    1.71    0.52
   7   2   5    1.81    0.41
   2   7   5    1.94    0.39
   7  -9  -5    1.99    0.48
   7   2  -5    2.07    0.44
   2   7  -6    0.38    0.19
   2   7   6    0.18    0.20
   7   2  -6    1.13    0.56
   7  -9  -6    0.68    0.42
   9  -7  -6    0.81    0.50
   7   2  -6    0.26    0.22
   7   2   6    0.41    0.27
   9  -2  -6    0.40    0.40
   7  -9  -7    1.95    0.58
   9  -7  -7    2.42    0.66
   7   2  -7    1.50    0.61
   9  -2  -7    1.79    0.65
   7   2  -8    0.70    0.52
   9  -7  -8    1.51    0.69
   9  -2  -8    1.21    0.63
   9  -7  -9    0.35    0.50
  -1   9   0    0.74    0.29
   1   8   0    0.74    0.28
  -1   9  -1   14.39    1.09
   1   8  -1   15.38    1.16
  -1   9   1   18.11    1.14
   1   8   1   16.41    1.13
  -1   9  -2    0.95    0.34
  -1   9   2    0.78    0.30
   1  -9   2    0.42    0.26
   1   8  -2    0.73    0.27
   1   8   2    0.79    0.27
   8   1  -3   15.32    1.25
   8   1   3   16.28    1.48
  -1   9   3   15.91    1.05
  -1   9  -3   15.00    1.15
   1   8  -3   16.51    1.22
   1   8   3   16.52    1.09
   8   1   4    0.23    0.19
   1   8   4    0.99    0.28
   1   8  -4    0.82    0.31
   8   1  -4    0.81    0.31
   8   1  -5    6.95    1.00
   8   1  -5    6.36    0.82
   8   1   5    8.06    0.89
   1   8   5    7.04    0.70
   1   8  -5    7.25    0.78
   8   1   6    0.34    0.20
   8   1  -6    0.65    0.36
   9  -1   6    0.91    0.37
   8  -9  -6    1.03    0.48
   8   1  -6    1.41    0.65
   9  -1  -6    1.27    0.58
   9  -8  -6    1.41    0.61
   9  -1  -6    0.21    0.26
   9  -1  -7    6.40    1.12
   8   1  -7    4.90    1.00
   9  -8  -7    6.36    1.04
   8  -9  -7    5.87    0.96
   9  -8  -8    0.36    0.41
   8   1  -8    0.64    0.61
   9  -1  -8    1.36    0.62
   0   9   0    5.81    0.72
   0   9  -1   -0.12    0.24
   0   9   1    0.08    0.16
   0   9  -2  230.86    5.54
   0   9   2  251.38    5.29
   0   9  -3   -0.32    0.25
   0   9   3   -0.04    0.16
   0   9  -4    5.09    0.68
   0   9   4    4.50    0.60
   9   0  -5   -0.12    0.25
   9   0  -5   -0.32    0.36
   9   0   5   -0.37    0.37
   9   0  -6   93.32    3.23
   9   0   6   90.10    3.23
   9   0  -6   92.16    4.04
   9  -9  -6   99.30    3.89
   9  -9  -7    0.26    0.38
   9   0  -7    0.39    0.42
   9   0  -8    5.36    1.02
   9  -9  -8    4.75    0.95
   5   5   0   57.97    2.67
   5   5   1    0.85    0.37
   5   5  -1    0.19    0.20
   5   5  -2  122.04    3.88
   5   5   2  131.28    3.98
   5   5  -3    1.01    0.31
   5   5  -3    1.24    0.42
   5   5   3    0.43    0.17
   5   5  -4   34.05    1.83
   5   5   4   36.20    1.78
   5   5  -4   39.55    2.28
   5 -10  -4   39.78    1.71
   5   5  -5    0.10    0.20
   5   5   5    0.34    0.23
   5   5  -5    0.53    0.42
  10  -5  -6   65.61    3.26
   5   5   6   63.16    2.27
   5   5  -6   65.83    3.23
   5   5  -6   61.92    2.39
  10  -5  -7    0.23    0.46
  10  -5  -8   14.45    1.72
  10  -5  -9    0.33    0.49
   4   6   0    1.18    0.34
   6   4   0    1.53    0.46
   4   6  -1   11.06    1.06
   4   6   1   12.17    1.09
   6   4  -1   10.81    1.11
   6   4   1   12.22    1.22
   4   6  -2    0.65    0.29
   6   4  -2    1.47    0.39
   4   6   2    1.01    0.28
   4   6  -2    1.25    0.37
   6   4   2    0.94    0.29
   4   6  -3    9.89    0.98
   6   4  -3   11.92    1.12
   6   4   3   14.41    1.22
   4   6  -3   12.52    1.17
   4   6   3   14.02    1.09
   6   4  -3   13.87    1.21
   4 -10  -3   13.49    0.73
   4   6  -4    0.69    0.30
   4   6   4    1.03    0.29
   6   4  -4    1.70    0.61
   4   6  -4    1.09    0.47
   6 -10  -4    0.91    0.31
   6   4  -4    1.00    0.36
   6   4   4    2.02    0.48
   4   6   5    5.40    0.65
   4   6  -5    4.37    0.63
   4   6  -5    4.81    0.82
   6 -10  -5    4.23    0.64
   6   4   5    4.05    0.56
   6   4  -5    4.44    0.85
   6   4  -5    3.96    0.62
   6   4  -6    0.37    0.22
   6   4   6    0.28    0.18
   6 -10  -6    0.39    0.39
   4   6  -6    0.31    0.20
   6   4  -6    1.44    0.60
  10  -4  -6    1.32    0.56
  10  -6  -6    0.55    0.40
   4   6   6    0.20    0.17
   6   4  -7    4.42    0.90
  10  -6  -7    5.11    0.98
  10  -4  -7    4.16    0.86
  10  -6  -8    0.58    0.53
  10  -4  -8    0.43    0.40
  10  -6  -9    0.51    0.43
   3   7   0    6.13    0.79
   7   3   0    5.38    0.80
   3 -10   0    5.43    0.46
   3   7   0    5.15    0.53
   3   7  -1   12.83    1.13
   3   7   1   13.81    1.14
   3   7  -1   13.78    1.02
   7   3   1   13.79    1.35
   3 -10   1   13.65    0.86
   3 -10  -1   13.58    0.59
   7   3  -1   14.93    1.31
   7   3  -2    6.16    0.82
   7   3   2    3.53    0.68
   3   7  -2    5.77    0.76
   3   7   2    5.65    0.72
   3   7  -2    5.39    0.71
   3   7   3   10.01    0.92
   7   3  -3    7.87    0.92
   7   3   3    8.86    1.02
   3   7  -3    8.37    0.93
   3   7  -3    8.09    0.89
   3   7  -4    2.01    0.46
   3   7   4    3.17    0.54
   7   3   4    3.71    0.65
   3   7   4    2.99    0.36
   3   7  -4    2.26    0.54
   7   3  -4    4.25    0.75
   7   3  -4    2.73    0.54
   7   3  -5   11.07    1.05
   7   3   5    9.41    0.93
   7 -10  -5    9.17    0.98
   7   3  -5    9.81    1.21
   3   7   5    9.93    0.87
   3   7  -5    9.35    0.90
   7   3  -6    1.94    0.42
   7   3  -6    1.59    0.62
   3   7  -6    1.83    0.40
  10  -3  -6    2.47    0.70
   7   3   6    0.90    0.31
  10  -7  -6    2.09    0.70
   3   7   6    1.49    0.37
   7 -10  -6    1.43    0.49
  10  -7  -7    1.70    0.60
   7   3  -7    2.21    0.72
  10  -3  -7    1.85    0.71
  10  -3  -8    1.06    0.58
  10  -7  -8    0.05    0.48
  10  -7  -9    2.72    0.85
   2   8   0   13.31    1.14
   2   8   0   11.84    0.73
  -2  10   0   14.58    1.05
   8   2   0   11.30    1.17
   2   8   1   60.41    2.41
   8   2   1   52.93    2.74
   2   8  -1   52.26    1.93
   8   2  -1   56.61    2.58
   2 -10   1   61.57    2.24
  -2  10   1   61.95    2.18
  -2  10  -1   59.82    2.28
   2   8  -1   57.46    2.45
   2   8   1   51.18    1.32
   2   8  -2  166.41    4.26
   8   2   2  160.17    5.21
   8   2  -2  164.69    4.65
   2   8  -2  172.99    4.62
   2   8   2  180.10    4.43
   8   2  -3   40.80    2.12
   8   2   3   40.04    2.35
   2   8  -3   40.37    2.03
   2   8   3   41.31    1.89
   8   2  -4   13.49    1.20
   8   2   4   14.40    1.29
   2   8  -4   11.88    1.06
   2   8   4   11.93    0.97
   8   2  -5   26.34    1.65
   8   2   5   24.78    1.57
   8   2  -5   25.34    1.97
   8 -10  -5   25.66    1.67
   2   8  -5   24.22    1.47
   2   8   5   26.56    1.44
   8   2  -6   84.40    3.04
   8   2   6   81.62    2.86
   2   8  -6   76.87    2.65
  10  -2  -6   83.01    3.86
  10  -8  -6   80.17    3.45
   8 -10  -6   80.58    3.33
   2   8   6   82.69    2.59
   8   2  -6   80.65    3.79
   8 -10  -7   11.21    1.24
   8   2  -7   13.45    1.60
  10  -2  -7   11.84    1.52
  10  -8  -7   11.66    1.47
  10  -2  -8    7.63    1.28
  10  -8  -8    6.78    1.15
   8   2  -8    4.75    0.98
  10  -8  -9    3.86    0.98
  -1  10   0    1.09    0.37
   1   9   0    0.34    0.18
  -1  10  -1   31.19    1.76
  -1  10   1   32.34    1.66
   1   9  -1   26.91    1.65
   1   9   1   32.75    1.70
  -1  10  -2    0.19    0.20
  -1  10   2    1.15    0.32
   1   9   2    1.01    0.31
   1   9  -2    1.28    0.44
   9   1   3   17.47    1.64
   9   1  -3   18.92    1.44
  -1  10   3   18.59    1.20
  -1  10  -3   16.44    1.27
   1   9  -3   19.60    1.45
   1   9   3   20.51    1.34
   9   1  -4    0.17    0.21
   9   1   4   -0.06    0.29
   1   9  -4    0.51    0.28
   1   9   4    0.24    0.20
   9   1  -5   15.32    1.31
   9   1   5   15.26    1.33
   9   1  -5   14.69    1.46
   1   9  -5   14.40    1.15
   1   9   5   16.89    1.16
  10  -1  -6    0.24    0.30
  10  -1  -6    0.69    0.55
  10  -1   6   -0.16    0.37
   9   1  -6    0.12    0.28
   9   1   6   -0.01    0.21
   9   1  -6    0.08    0.33
   9 -10  -6    0.47    0.43
  10  -9  -6    0.79    0.48
   9 -10  -7    4.38    0.87
   9   1  -7    4.04    0.94
  10  -1  -7    3.96    0.94
  10  -9  -7    3.79    0.83
   9   1  -8   -0.44    0.48
  10  -9  -8   -0.04    0.33
  10  -1  -8    0.90    0.59
   0  10   0    1.16    0.39
   0  10  -1   24.93    1.61
   0  10   1   25.07    1.52
   0  10  -2    0.48    0.29
   0  10   2   -0.05    0.23
   0  10  -3   18.87    1.43
   0  10   3   23.87    1.43
   0  10  -4    0.27    0.23
   0  10   4    0.20    0.23
  10   0  -5    7.91    0.99
  10   0   5    7.03    0.94
  10   0  -6   -0.02    0.30
  10   0   6    0.19    0.32
  10 -10  -6   -0.11    0.27
  10   0  -6    0.32    0.48
  10   0  -7    8.20    1.31
  10 -10  -7    5.48    0.95
  10   0  -8    0.50    0.42
   5   6   0    7.65    0.99
   6   5   0   10.55    1.19
   6   5  -1    4.04    0.73
   6   5   1    3.65    0.68
   5   6   1    3.65    0.64
   5   6  -1    3.20    0.61
   6   5  -2    7.44    0.93
   6   5   2    7.53    0.97
   5   6  -2    7.49    0.86
   5   6  -2    6.60    0.84
   5   6   2    5.68    0.73
   5   6  -3    1.67    0.43
   5   6   3    2.48    0.51
   5 -11  -3    2.36    0.35
   5   6  -3    2.80    0.60
   6   5  -3    2.75    0.61
   6   5  -3    2.08    0.53
   6   5   3    3.14    0.65
   5 -11  -4    6.51    0.65
   6   5  -4    5.59    0.77
   5   6  -4    5.63    0.78
   5   6   4    4.18    0.63
   6 -11  -4    6.74    0.70
   5   6  -4    6.72    0.96
   6   5  -4    6.01    0.93
   6   5   4    5.28    0.72
   5   6  -5    2.57    0.53
   5   6   5    1.87    0.44
   6   5  -5    1.83    0.46
   6   5   5    1.96    0.44
   5   6  -5    2.88    0.67
   6   5  -5    1.62    0.54
   6 -11  -5    1.99    0.46
   6   5  -6    3.24    0.75
   6   5  -6    2.70    0.53
   6   5   6    2.58    0.46
   5   6  -6    4.72    0.91
   5   6  -6    2.83    0.47
   5   6   6    3.52    0.55
   6   5  -7    1.28    0.56
  11  -5  -7    0.31    0.44
  11  -6  -7    0.60    0.54
  11  -6  -8    1.96    0.72
  11  -5  -8    1.61    0.66
   4   7   0   88.36    3.31
   7   4   0   91.58    3.60
   4   7  -1   32.21    1.93
   4   7   1   35.94    1.97
   7   4  -1   29.24    1.92
   7   4   1   31.15    2.08
   4   7  -1   33.85    1.67
   4   7  -2   39.54    2.12
   4   7   2   39.92    2.05
   4   7  -2   42.63    2.07
   7   4  -2   40.18    2.18
   7   4   2   38.79    2.34
   4   7  -3   27.11    1.70
   4   7   3   27.05    1.61
   7   4  -3   28.35    1.81
   7   4   3   30.10    1.92
   4   7  -3   27.41    1.79
   4   7  -4   71.99    2.84
   4   7   4   74.43    2.73
   7   4  -4   78.96    3.08
   7   4   4   73.42    2.93
   4   7  -4   76.46    3.16
   7   4  -4   78.75    3.39
   7   4  -5   14.10    1.22
   7   4   5   13.98    1.13
   4   7  -5   14.20    1.42
   7 -11  -5   13.53    1.14
   7   4  -5   15.88    1.59
   4   7  -5   14.10    1.18
   4   7   5   15.02    1.14
   7   4  -6   21.39    1.47
   7   4   6   21.50    1.37
   7   4  -6   24.26    2.04
   4   7  -6   21.03    1.40
   4   7   6   21.77    1.32
  11  -4  -7    5.48    1.10
   7   4  -7    5.61    1.04
  11  -7  -7    4.76    0.94
  11  -7  -8   24.88    2.21
  11  -4  -8   23.98    2.28
  11  -7  -9    2.91    0.88
   3   8   0   15.17    1.27
   8   3   0   14.81    1.42
   3 -11   0   18.27    1.02
   3   8   0   15.16    0.97
   3   8  -1    1.94    0.48
   3   8   1    1.85    0.46
   8   3  -1    2.73    0.61
   8   3   1    2.00    0.56
   3   8  -1    1.97    0.41
   3 -11   1    2.11    0.39
   3   8   1    2.10    0.30
   3   8  -2   16.46    1.36
   3   8   2   15.13    1.23
   8   3  -2   16.21    1.40
   8   3   2   16.39    1.57
   3   8  -2   15.68    1.20
   3   8  -3    3.18    0.59
   3   8   3    2.68    0.52
   3   8  -3    2.63    0.56
   8   3  -3    1.94    0.51
   8   3   3    2.49    0.59
   8   3  -4   10.61    1.08
   8   3   4   10.84    1.17
   8   3  -4   10.77    1.20
   3   8  -4   10.15    1.03
   3   8   4   11.26    1.00
   8   3  -5    0.44    0.30
   8   3   5    0.64    0.38
   8   3  -5    0.59    0.43
   8 -11  -5    0.68    0.31
   3   8  -5    0.78    0.29
   3   8   5    0.85    0.33
   3   8  -6    4.88    0.68
   8 -11  -6    6.07    0.87
   8   3  -6    6.71    1.14
   8   3  -6    6.48    0.82
   8   3   6    5.48    0.73
  11  -3  -6    6.83    1.19
   3   8   6    7.02    0.77
   8   3  -7    1.81    0.70
  11  -3  -7    1.32    0.58
  11  -8  -7    1.23    0.53
   8   3  -8    4.30    0.99
  11  -8  -8    2.94    0.82
  11  -3  -8    1.35    0.70
  11  -8  -9    0.19    0.35
   9   2   0    0.61    0.26
  -2  11   0    1.70    0.41
   2   9   0    1.18    0.36
  -2  11   1    2.68    0.49
   2 -11   1    1.99    0.43
  -2  11  -1    1.33    0.37
   9   2  -1    2.60    0.56
   9   2   1    1.29    0.44
   2   9  -1    2.26    0.52
   2   9   1    1.83    0.47
   9   2  -2    1.07    0.36
   9   2   2    1.62    0.51
   2   9  -2    1.56    0.43
   2   9   2    2.13    0.51
   9   2  -3    1.68    0.45
   9   2   3    1.56    0.55
   2   9  -3    1.44    0.43
   2   9   3    2.03    0.48
   9   2  -4    0.48    0.23
   9   2   4    0.53    0.28
   2   9  -4    0.70    0.35
   2   9   4    0.52    0.27
   9   2  -5    0.99    0.41
   9   2   5    0.98    0.40
   2   9  -5    0.90    0.35
   2   9   5    0.59    0.31
   9   2  -5    0.57    0.42
   9   2  -6   -0.01    0.21
   9   2   6    0.62    0.31
   2   9  -6    0.79    0.40
   2   9   6    0.34    0.21
   9   2  -6    0.50    0.45
   9 -11  -6    0.77    0.44
  11  -2  -6    0.38    0.56
   9   2  -7    0.88    0.50
  11  -2  -7    1.05    0.52
  11  -9  -7    0.98    0.49
  11  -9  -8    0.02    0.36
  11  -2  -8    0.49    0.54
  11  -9  -9   -0.21    0.39
  -1  11   0   43.66    2.14
   1  10   0   40.15    2.09
  -1  11   1    3.65    0.61
  -1  11  -1    3.07    0.63
   1  10  -1    3.71    0.65
   1  10   1    4.23    0.67
  -1  11  -2   55.13    2.56
  -1  11   2   61.62    2.43
   1  10  -2   58.60    2.68
   1  10   2   62.70    2.51
  10   1  -3    3.58    0.67
  -1  11   3    3.41    0.56
  -1  11  -3    3.75    0.67
  10   1   3    2.86    0.70
   1  10  -3    3.41    0.64
   1  10   3    3.05    0.54
   1  10   4   35.41    1.80
  10   1  -4   33.58    2.05
  10   1   4   31.09    2.22
   1  10  -4   30.42    1.84
  10   1  -5    2.16    0.56
  10   1   5    1.71    0.48
   1  10  -5    1.96    0.50
   1  10   5    2.00    0.48
  10   1  -5    1.14    0.51
  10   1  -6   29.50    1.87
  10   1   6   31.64    1.95
  11  -1  -6   32.15    2.05
  11  -1   6   31.47    2.04
  10   1  -6   31.24    2.39
  11  -1  -6   32.65    2.55
  10 -11  -6   29.89    2.04
  10 -11  -7    0.34    0.39
  10   1  -7    0.82    0.55
  11  -1  -7   -0.07    0.41
  11 -10  -7    0.01    0.28
  11 -10  -8    9.30    1.32
   0  11   0    4.29    0.68
   0  11  -1    1.32    0.38
   0  11   1    1.53    0.42
   0  11  -2    2.32    0.57
   0  11   2    3.10    0.57
   0  11  -3    1.02    0.41
   0  11   3    0.83    0.38
  11   0   4    1.81    0.44
  11   0  -4    2.00    0.51
   0  11   4    2.27    0.49
   0  11  -4    2.13    0.55
  11   0  -5    0.95    0.46
  11   0   5    0.76    0.36
  11   0  -6    0.50    0.31
  11   0   6    0.82    0.42
  11   0  -6    1.76    0.78
  11 -11  -6    0.89    0.39
  11 -11  -7    0.21    0.35
  11   0  -7   -0.51    0.52
   6   6   0  212.20    5.98
   6   6  -1    4.04    0.76
   6   6   1    4.14    0.75
   6   6  -2    1.61    0.40
   6   6  -2    2.05    0.47
   6   6  -3    3.23    0.64
   6   6   3    2.47    0.53
   6   6  -3    3.84    0.69
   6   6  -4  136.87    4.25
   6   6   4  133.10    4.05
   6   6  -4  141.36    4.74
   6   6  -5    2.37    0.54
   6   6   5    2.61    0.50
   6   6  -5    1.98    0.62
   6   6  -6    1.28    0.36
   6   6   6    1.39    0.41
   6   6  -6    2.49    0.71
  12  -6  -7    0.66    0.40
  12  -6  -8   34.59    2.73
   5   7   0   15.88    1.45
   7   5   0   17.78    1.63
   7   5  -1    2.01    0.52
   7   5   1    2.50    0.61
   5   7  -1    1.58    0.42
   5   7   1    2.63    0.61
   5   7  -1    2.72    0.51
   5   7  -2   13.24    1.26
   5   7   2   12.27    1.19
   5   7  -2   14.65    1.26
   7   5  -2   14.11    1.33
   7   5   2   13.01    1.36
   5   7  -3    2.19    0.53
   5   7   3    3.01    0.60
   5 -12  -3    2.48    0.27
   5   7  -3    3.09    0.66
   7   5  -3    3.00    0.62
   7   5  -3    2.21    0.52
   7   5   3    4.15    0.75
   5   7  -4    9.12    1.01
   5   7   4    8.56    0.93
   7   5  -4    8.78    1.04
   7   5   4    7.67    0.94
   5   7  -4   11.49    1.25
   7 -12  -4    9.25    0.82
   7   5  -4    8.78    1.14
   5   7  -5    0.73    0.36
   5   7   5    0.85    0.38
   7   5  -5    1.10    0.40
   5   7  -5    0.78    0.44
   7   5   5    0.30    0.24
   7   5  -5    0.16    0.35
   7   5  -6    4.47    0.73
   7   5   6    5.03    0.70
   7   5  -6    5.87    1.05
   5   7  -6    4.10    0.66
   5   7   6    3.44    0.59
  12  -5  -7    0.59    0.53
   7   5  -7    0.86    0.54
  12  -7  -7    0.56    0.38
  12  -7  -8    1.66    0.68
  12  -5  -8    2.02    0.77
   4   8   0   10.27    1.11
   8   4   0   10.50    1.21
   4 -12   0   11.47    0.75
   4   8   0   11.88    0.91
   4   8  -1    3.95    0.70
   4   8   1    3.16    0.65
   8   4  -1    4.06    0.73
   4 -12  -1    3.55    0.36
   4 -12   1    2.75    0.45
   4   8  -1    3.42    0.55
   8   4   1    4.91    0.87
   4   8  -2   10.73    1.12
   4   8   2   11.48    1.12
   8   4  -2   10.57    1.14
   8   4   2   11.02    1.29
   4   8  -2   10.93    1.05
   4   8  -3    2.14    0.56
   4   8   3    1.62    0.45
   8   4  -3    2.14    0.53
   8   4   3    1.27    0.46
   4   8  -3    2.24    0.55
   4   8   4    7.63    0.87
   4   8  -4    6.88    0.87
   8   4  -4    8.63    1.03
   8   4   4    7.58    0.98
   4   8  -4    9.49    1.17
   8   4  -4    8.04    1.07
   8   4  -5    2.18    0.64
   8 -12  -5    1.93    0.47
   8   4  -5    2.12    0.50
   8   4   5    2.88    0.58
   4   8  -5    2.27    0.49
   4   8   5    2.21    0.49
   8   4  -6    4.37    0.70
   8   4   6    4.54    0.69
   4   8  -6    4.73    0.71
   4   8   6    4.84    0.67
   8   4  -6    4.61    1.01
   8   4  -7    0.18    0.37
  12  -4  -7   -0.90    0.65
  12  -8  -7    0.15    0.31
  12  -8  -8    1.62    0.69
  12  -4  -8    3.05    1.04
   9   3   0   63.94    3.15
   3   9   0   64.66    2.08
   3   9  -1    3.11    0.62
   3   9   1    3.15    0.63
   9   3  -1    2.71    0.65
   9   3   1    2.28    0.63
   3   9  -1    2.52    0.45
   3   9   1    2.05    0.29
   3 -12   1    4.04    0.60
   3   9  -2   29.34    1.88
   3   9   2   29.31    1.76
   9   3  -2   28.05    1.89
   9   3   2   29.04    2.21
   3   9  -2   28.54    1.65
   9   3  -3    2.46    0.57
   9   3   3    3.06    0.71
   3   9  -3    2.17    0.53
   3   9   3    3.14    0.60
   9   3  -4   49.25    2.52
   9   3   4   49.51    2.62
   3   9  -4   44.61    2.28
   3   9   4   48.97    2.25
   9   3  -5    2.99    0.63
   9   3   5    2.30    0.57
   9   3  -5    2.23    0.62
   3   9  -5    1.88    0.49
   3   9   5    1.46    0.41
   9 -12  -5    1.98    0.47
   9   3  -6   15.03    1.34
   9   3   6   15.86    1.33
   9   3  -6   15.43    1.69
   3   9  -6   14.84    1.24
   3   9   6   15.89    1.19
  12  -3  -7    1.43    0.70
  12  -9  -7    0.48    0.31
   9   3  -7    1.53    0.66
  12  -9  -8   13.91    1.60
  10   2   0    1.23    0.43
   2  10   0    1.82    0.48
  10   2  -1    0.10    0.22
  10   2   1    0.63    0.37
   2  10  -1    0.44    0.34
   2  10   1    0.74    0.38
  10   2  -2    2.42    0.56
  10   2   2    1.69    0.63
   2  10  -2    1.60    0.45
   2  10   2    2.74    0.56
  10   2  -3    0.46    0.34
  10   2   3    0.53    0.37
   2  10  -3    0.23    0.29
   2  10   3    0.63    0.31
  10   2  -4    1.50    0.48
  10   2   4    2.03    0.61
   2  10  -4    0.89    0.32
   2  10   4    2.00    0.48
   2  10  -5   -0.02    0.26
  10   2  -5    0.35    0.32
   2  10   5    0.48    0.32
  10   2   5    0.45    0.34
  10   2  -5    0.70    0.39
  10   2  -6    0.78    0.30
  10   2   6    0.67    0.33
  12  -2   6    0.49    0.24
   2  10   6    1.28    0.44
   2  10  -6    1.03    0.38
  10   2  -6    1.31    0.59
  12  -2  -6   -0.03    0.50
  12  -2  -6    0.07    0.34
  10   2  -7    0.70    0.40
  12  -2  -7    0.43    0.48
  12 -10  -7   -0.24    0.35
  12 -10  -8    0.67    0.47
   1  11   0    6.71    0.90
  -1  12   0    7.96    0.94
  -1  12  -1    0.81    0.34
  -1  12   1    1.91    0.53
   1  11  -1    1.04    0.39
   1  11   1    1.30    0.42
  11   1  -2    5.80    0.88
  -1  12  -2    6.38    0.91
  -1  12   2    6.70    0.83
  11   1   2    5.22    1.06
   1  11  -2    7.68    0.99
   1  11   2    7.50    0.90
  11   1   3    0.66    0.45
   1  11   3    0.02    0.24
   1  11  -3    0.43    0.33
  -1  12   3    0.83    0.37
  -1  12  -3    0.18    0.26
  11   1  -3   -0.06    0.26
   1  11  -4    4.58    0.76
   1  11   4    6.27    0.80
  11   1  -4    4.29    0.79
  11   1   4    4.98    0.95
  12  -1  -5    0.83    0.45
  12  -1   5    0.48    0.30
  11   1  -5    1.24    0.53
  11   1   5    1.29    0.49
   1  11   5    1.10    0.41
   1  11  -5    0.23    0.27
  11   1  -6    2.65    0.60
  11   1   6    2.50    0.67
  11   1  -6    1.87    0.72
  11 -12  -6    2.56    0.61
  12  -1  -6    3.12    1.03
  12  -1  -6    3.81    0.80
  12  -1   6    2.02    0.57
  12  -1  -7    0.40    0.62
  11   1  -7    0.22    0.48
  12 -11  -7   -0.31    0.28
   0  12   0  101.13    3.61
   0  12  -1    0.18    0.31
   0  12   1    0.78    0.38
   0  12  -2    3.72    0.76
   0  12   2    3.01    0.58
   0  12  -3    0.78    0.38
   0  12   3    0.76    0.37
  12   0  -4   72.57    3.34
  12   0   4   62.74    3.52
   0  12   4   70.51    2.80
   0  12  -4   67.98    2.98
  12   0  -5    0.84    0.46
  12   0   5   -0.15    0.29
  12   0  -6    3.52    0.74
  12   0   6    4.24    0.85
  12   0  -6    4.85    1.11
   6   7   0    4.94    0.82
   7   6   0    4.17    0.84
   6   7  -1    3.07    0.75
   6   7   1    2.26    0.54
   7   6  -1    2.23    0.60
   7   6   1    2.97    0.73
   6   7  -2    3.21    0.68
   6   7   2    2.64    0.55
   6   7  -2    3.22    0.61
   7   6  -2    3.07    0.67
   7   6   2    4.20    0.81
   6   7  -3    2.21    0.57
   6   7   3    2.06    0.49
   6   7  -3    1.93    0.59
   7   6  -3    2.49    0.59
   7   6  -3    2.05    0.55
   7   6   3    2.60    0.57
   6   7  -4    1.98    0.53
   6   7   4    1.97    0.42
   6   7  -4    3.54    0.78
   7   6  -4    3.71    0.71
   7   6   4    2.25    0.49
   7   6  -4    3.46    0.76
   6   7  -5    0.39    0.31
   6   7   5    0.03    0.23
   7   6  -5    0.35    0.27
   7   6   5    0.74    0.35
   6   7  -5    0.23    0.35
   7   6  -5    0.62    0.40
   6   7  -6    1.10    0.38
   6   7   6    1.16    0.39
   7   6  -6    1.00    0.42
   7   6   6    1.03    0.35
   6   7  -6    0.94    0.51
   7   6  -6    0.99    0.44
   7   6  -7    1.40    0.63
  13  -6  -7    1.30    0.81
  13  -7  -7    1.67    0.67
  13  -7  -8    1.73    0.72
   5   8   0   83.07    3.49
   8   5   0   87.75    3.79
   8   5  -1    3.24    0.69
   8   5   1    3.41    0.77
   5   8  -1    3.07    0.67
   5   8   1    4.18    0.77
   5   8  -1    3.89    0.61
   5   8  -2   11.52    1.25
   5   8   2   11.30    1.22
   8   5  -2   13.20    1.33
   8   5   2   12.62    1.43
   5   8  -2   11.79    1.14
   8   5  -3    4.97    0.87
   8   5   3    3.63    0.81
   5   8  -3    2.81    0.62
   5   8   3    4.05    0.72
   5   8  -3    3.79    0.70
   5   8  -4   62.57    2.84
   5   8   4   64.90    2.75
   8   5  -4   63.21    2.93
   8   5   4   61.52    2.87
   5   8  -4   61.00    2.93
   8   5  -4   65.41    3.18
   5   8  -5    2.59    0.59
   5   8   5    2.26    0.53
   5   8  -5    1.76    0.63
   8   5  -5    1.83    0.50
   8   5   5    1.05    0.36
   8   5  -5    1.90    0.60
   8   5  -6    7.71    0.97
   8   5   6    8.67    0.94
   8   5  -6    9.50    1.35
   5   8  -6    8.20    0.95
   5   8   6    7.23    0.86
   8   5  -7    0.13    0.35
  13  -5  -7    0.59    0.63
  13  -8  -7    0.70    0.47
  13  -8  -8   15.51    1.70
   4   9   0    3.44    0.66
   4   9   0    4.47    0.57
   9   4   0    2.84    0.64
   4   9  -1    0.86    0.37
   4   9   1    1.61    0.50
   4   9  -1    1.91    0.44
   4 -13   1    1.41    0.40
   4   9   1    0.79    0.21
   9   4  -1    0.99    0.33
   9   4   1    1.39    0.59
   4   9  -2    5.14    0.81
   4   9   2    5.07    0.80
   4   9  -2    4.43    0.67
   9   4  -2    4.85    0.81
   9   4   2    3.40    0.79
   4   9  -3    0.83    0.36
   4   9   3    1.37    0.45
   9   4  -3    1.65    0.49
   9   4   3    0.62    0.39
   4   9  -3    1.05    0.42
   9   4  -4    2.62    0.61
   9   4   4    2.54    0.66
   9   4  -4    2.98    0.74
   4   9  -4    1.51    0.40
   4   9   4    1.52    0.45
   9   4  -5    1.61    0.54
   4   9  -5    1.46    0.44
   4   9   5    0.75    0.38
   9   4  -5    1.45    0.48
   9   4   5    1.31    0.46
   9   4  -6    0.90    0.40
   9   4   6    0.90    0.40
   9   4  -6    1.44    0.54
   4   9  -6    0.53    0.32
   4   9   6    1.19    0.41
   9   4  -7    0.62    0.48
  13  -4  -7    0.47    0.57
  13  -9  -7    0.42    0.32
  13  -9  -8    0.81    0.44
   3  10   0    4.81    0.77
  10   3   0    3.57    0.74
  10   3  -1    3.40    0.69
  10   3   1    2.92    0.78
   3  10  -1    2.53    0.60
   3  10   1    2.97    0.64
  10   3  -2    5.71    0.88
  10   3   2    3.93    0.84
   3  10  -2    5.10    0.81
   3  10   2    5.97    0.84
  10   3  -3    1.69    0.54
   3  10  -3    1.68    0.49
   3  10   3    1.69    0.49
  10   3   3    1.17    0.44
  10   3  -4    2.34    0.60
  10   3   4    4.07    0.78
   3  10  -4    3.04    0.61
   3  10   4    3.90    0.67
  10   3  -5    2.50    0.63
  10   3   5    2.25    0.65
   3  10  -5    1.88    0.52
   3  10   5    1.90    0.45
  10   3  -5    1.85    0.61
   3  10  -6    1.15    0.41
   3  10   6    2.42    0.53
  10   3  -6    2.16    0.68
  10   3  -6    2.08    0.57
  10   3   6    2.03    0.58
  10   3  -7    0.26    0.35
  13 -10  -7    0.27    0.28
  13 -10  -8    0.49    0.41
  11   2   0   64.45    3.25
   2  11   0   63.47    2.88
  11   2  -1    7.49    1.03
  11   2   1   11.01    1.40
   2  11  -1    9.85    1.11
   2  11   1   12.00    1.18
  11   2  -2    8.81    1.11
  11   2   2    8.96    1.34
   2  11  -2   10.37    1.17
   2  11   2   10.73    1.10
  11   2  -3   10.33    1.20
  11   2   3    9.32    1.35
   2  11  -3    8.66    1.10
   2  11   3   10.26    1.08
  11   2  -4   47.83    2.64
  11   2   4   47.34    2.92
   2  11  -4   47.02    2.50
   2  11   4   51.58    2.43
   2  11  -5    5.56    0.84
   2  11   5    5.39    0.79
  11   2  -5    7.59    1.05
  11   2   5    5.15    0.86
  11   2  -5    6.55    1.10
  13  -2  -6    8.62    1.23
  11   2  -6    6.94    0.96
  11   2   6    7.60    1.04
   2  11   6    6.61    0.83
   2  11  -6    6.46    0.86
  11   2  -6    7.11    1.19
  13  -2   6    5.43    0.86
  13 -11  -7    1.17    0.44
  12   1   0    9.21    1.24
   1  12   0    7.39    0.97
  -1  13   0    9.03    1.04
  12   1  -1    7.97    1.11
  12   1   1    9.14    1.39
  -1  13   1    7.94    1.00
  -1  13  -1    8.05    1.05
   1  12  -1    7.72    1.03
   1  12   1    9.64    1.10
  -1  13   2    6.39    0.83
  -1  13  -2    5.85    0.89
  12   1  -2    5.63    0.88
  12   1   2    3.90    0.92
   1  12  -2    5.32    0.88
   1  12   2    5.92    0.83
  12   1  -3    7.36    1.01
  12   1   3    6.86    1.21
   1  12  -3    8.57    1.10
   1  12   3    8.66    1.01
   1  12  -4    5.73    0.88
   1  12   4    6.38    0.87
  12   1  -4    6.05    1.00
  12   1   4    5.21    1.00
  12   1  -5    3.92    0.83
  12   1   5    2.96    0.74
  13  -1  -5    3.26    0.76
   1  12   5    3.75    0.69
   1  12  -5    3.34    0.69
  13  -1   5    4.21    0.86
  12   1  -6    2.15    0.59
  12   1   6    3.58    0.79
  13  -1  -6    3.42    0.77
  12   1  -6    4.06    1.06
  13  -1   6    2.71    0.61
  13  -1  -6    4.26    1.34
   0  13   0    2.00    0.57
   0  13  -1    0.76    0.31
   0  13   1    1.06    0.42
   0  13  -2    1.01    0.41
   0  13   2    0.93    0.40
  13   0   3   -0.04    0.41
   0  13  -3    0.66    0.48
   0  13   3    0.18    0.30
  13   0  -3   -0.01    0.27
  13   0  -4    1.20    0.56
   0  13   4    2.13    0.55
   0  13  -4    1.47    0.55
  13   0   4    0.85    0.62
  13   0  -5    0.37    0.34
  13   0   5    0.37    0.33
  13   0   6    0.34    0.25
  13   0  -6    0.42    0.63
  13   0  -6    0.65    0.43
   7   7   0   29.41    2.18
   7   7  -1    9.67    1.21
   7   7   1    9.40    1.21
   7   7  -2   32.20    2.16
   7   7   2   32.72    2.22
   7   7  -2   36.78    2.11
   7   7  -3    6.89    1.00
   7   7   3    7.30    0.98
   7   7  -3    7.01    1.02
   7   7  -4   23.56    1.78
   7   7   4   25.39    1.79
   7   7  -4   28.12    2.07
   7   7  -5    3.57    0.70
   7   7   5    3.89    0.67
   7   7  -5    4.55    0.93
   7   7  -6   17.72    1.49
   7   7   6   16.48    1.36
   7   7  -6   18.46    1.86
  14  -7  -7    2.46    0.84
   8   6   0    2.28    0.60
   6   8   0    2.07    0.61
   8   6   1    1.49    0.55
   6   8  -1    0.76    0.32
   6   8   1    1.23    0.47
   6   8  -1    1.86    0.47
   8   6  -1    0.94    0.38
   6   8  -2    2.03    0.58
   6   8   2    1.79    0.47
   6   8  -2    1.98    0.52
   8   6  -2    1.84    0.57
   8   6   2    3.21    0.77
   6   8  -3    0.41    0.26
   6   8   3    0.66    0.32
   6   8  -3    1.02    0.46
   8   6  -3    1.20    0.45
   8   6  -3    0.90    0.39
   8   6   3    0.94    0.51
   6   8  -4    1.38    0.47
   6   8   4    1.75    0.44
   6   8  -4    2.24    0.62
   8   6  -4    1.28    0.46
   8   6   4    1.28    0.34
   8   6  -4    1.57    0.57
   6   8  -5    0.87    0.40
   6   8   5    0.91    0.36
   8   6  -5    1.27    0.49
   8   6   5    1.41    0.47
   6   8  -5    1.33    0.59
   8   6  -5    2.19    0.71
   8   6  -6    0.70    0.41
   8   6   6    0.36    0.30
   8   6  -6    1.33    0.64
   6   8  -6    0.36    0.32
   6   8   6    0.59    0.37
   8   6  -7    0.18    0.40
  14  -6  -7    0.07    0.50
  14  -8  -7   -0.91    0.60
   5   9   0    0.35    0.25
   9   5   0    1.59    0.52
   5   9   0    1.06    0.31
   5   9  -1    3.65    0.74
   5   9   1    3.07    0.65
   9   5  -1    3.83    0.81
   9   5   1    3.93    0.83
   5   9   1    3.99    0.51
   5   9  -1    4.62    0.68
   5   9  -2    2.24    0.58
   5   9   2    2.26    0.55
   9   5  -2    0.38    0.27
   9   5   2    3.21    0.83
   5   9  -2    2.14    0.53
   9   5  -3    2.77    0.65
   9   5   3    4.85    0.94
   5   9  -3    4.38    0.80
   5   9   3    4.74    0.79
   5   9  -3    3.88    0.73
   5   9  -4    0.56    0.33
   5   9   4   -0.12    0.37
   5   9  -4    1.12    0.46
   9   5  -4    0.83    0.41
   9   5  -4    0.76    0.34
   9   5   4    0.12    0.28
   9   5  -5    1.30    0.57
   9   5  -5    1.54    0.46
   9   5   5    1.26    0.44
   5   9  -5    1.25    0.46
   5   9   5    1.50    0.47
   9   5  -6    0.71    0.31
   9   5   6    0.45    0.31
   9   5  -6    0.76    0.55
   5   9  -6    1.35    0.44
   5   9   6    0.19    0.29
   9   5  -7    1.66    0.73
  14  -5  -7    2.58    1.08
  14  -9  -7    1.02    0.46
   4  10   0   19.70    1.67
  10   4   0   20.95    1.82
   4  10   0   18.09    1.12
   4  10  -1   15.77    1.52
   4  10   1   16.37    1.53
  10   4  -1   15.00    1.47
  10   4   1   16.43    1.70
   4  10  -1   14.46    1.11
   4  10  -2   33.69    2.22
   4  10   2   35.02    2.15
  10   4  -2   34.26    2.19
  10   4   2   32.40    2.45
   4  10  -2   33.04    1.88
  10   4  -3   11.17    1.24
  10   4   3   11.90    1.49
   4  10  -3   10.37    1.22
   4  10   3   11.80    1.21
  10   4  -4   17.76    1.60
  10   4   4   21.30    1.83
  10   4  -4   18.93    1.68
   4  10  -4   17.29    1.51
   4  10   4   19.18    1.49
  10   4  -5    7.97    1.21
   4  10  -5    7.53    1.01
   4  10   5    7.08    0.93
  10   4  -5    7.68    1.08
  10   4   5    6.23    0.96
  10   4  -6   18.31    1.55
  10   4   6   17.11    1.48
  10   4  -6   13.92    1.64
   4  10  -6   17.49    1.47
   4  10   6   19.81    1.46
  14 -10  -7    2.01    0.52
  11   3   0   10.97    1.37
   3  11   0   11.49    1.27
  11   3  -1    1.89    0.56
  11   3   1    1.64    0.62
   3  11  -1    1.84    0.56
   3  11   1    2.38    0.61
  11   3   2    9.28    1.34
  11   3  -2    9.52    1.17
   3  11  -2    9.83    1.17
   3  11   2   10.95    1.16
   3  11  -3    1.73    0.56
   3  11   3    1.64    0.52
  11   3  -3    1.31    0.46
  11   3   3    1.05    0.48
  11   3  -4    6.43    1.00
  11   3   4    7.71    1.16
   3  11  -4    7.60    1.04
   3  11   4    8.06    1.01
  11   3  -5    1.58    0.56
  11   3   5    0.73    0.46
   3  11  -5    0.61    0.33
   3  11   5    0.93    0.39
  11   3  -5    0.37    0.31
   3  11  -6    4.44    0.77
   3  11   6    3.82    0.70
  11   3  -6    2.83    0.80
  11   3  -6    4.11    0.80
  11   3   6    4.87    0.88
  14 -11  -7    0.44    0.32
  12   2   0    6.61    1.04
   2  12   0    5.20    0.90
   2  12  -1    2.18    0.60
   2  12   1    1.72    0.51
  12   2  -1    1.84    0.55
  12   2   1    0.86    0.44
  12   2  -2    6.00    0.97
   2  12  -2    5.61    0.91
   2  12   2    7.09    0.97
  12   2   2    4.17    0.95
  12   2  -3    1.84    0.58
  12   2   3    1.08    0.44
   2  12  -3    1.07    0.46
   2  12   3    1.23    0.46
   2  12  -4    3.48    0.70
   2  12   4    5.07    0.80
  12   2  -4    3.73    0.78
  12   2   4    4.07    0.92
   2  12  -5    1.57    0.56
   2  12   5    2.30    0.57
  12   2  -5    2.32    0.67
  12   2   5    1.81    0.64
  12   2  -5    1.85    0.67
  12   2  -6    1.74    0.59
  12   2   6    1.93    0.58
  14  -2  -6    1.58    0.70
  12   2  -6    1.27    0.65
   2  12   6    2.09    0.52
   2  12  -6    1.45    0.47
  14  -2   6    0.90    0.43
  14 -12  -7    0.53    0.29
  13   1   0   22.91    2.08
  -1  14   0   24.60    1.80
   1  13   0   24.38    1.81
  13   1  -1    1.38    0.53
  13   1   1    1.16    0.53
  -1  14   1    1.21    0.44
  -1  14  -1    1.13    0.43
   1  13  -1    1.18    0.48
   1  13   1    1.00    0.45
  13   1  -2   15.06    1.52
  13   1   2   17.13    2.05
  -1  14   2   16.87    1.40
  -1  14  -2   16.99    1.53
   1  13  -2   15.64    1.51
   1  13   2   18.04    1.52
  13   1  -3    0.56    0.43
  13   1   3    1.91    0.81
   1  13  -3    0.17    0.33
   1  13   3    1.29    0.51
  13   1  -4   17.69    1.74
  13   1   4   21.95    2.14
  14  -1  -4   20.58    1.84
   1  13  -4   19.22    1.67
   1  13   4   21.10    1.62
  13   1   5    0.83    0.51
  14  -1  -5   -0.06    0.32
   1  13   5    0.59    0.35
   1  13  -5    0.41    0.34
  14  -1   5    0.47    0.38
  13   1  -5    0.81    0.52
  14  -1  -6    9.77    1.36
  13   1  -6    9.42    1.27
  13   1   6    9.50    1.25
  14  -1   6    6.17    0.97
   0  14   0    1.30    0.54
   0  14  -1    0.35    0.33
   0  14   1    0.37    0.36
   0  14  -2    0.30    0.27
   0  14   2    0.06    0.26
  14   0  -2    0.23    0.31
  14   0  -3    0.54    0.39
   0  14   3    0.20    0.31
   0  14  -3    0.15    0.29
  14   0   3    0.63    0.59
  14   0  -4    0.31    0.34
  14   0   4    0.21    0.34
  14   0  -5    0.30    0.45
  14   0   5    0.16    0.30
  14   0   6   -0.06    0.28
   7   8   0   -0.41    0.35
   8   7   0   -0.27    0.44
   7   8  -1    4.89    0.94
   7   8   1    5.19    0.98
   8   7  -1    4.84    0.92
   8   7   1    4.71    0.87
   7   8  -1    5.42    0.77
   7   8  -2   -0.40    0.41
   7   8   2   -0.16    0.44
   8   7  -2    0.00    0.35
   8   7   2   -0.43    0.49
   7   8  -2    0.11    0.27
   8   7  -2    0.28    0.34
   7   8  -3    4.48    0.85
   7   8   3    4.84    0.87
   8   7  -3    4.07    0.84
   8   7   3    4.81    0.88
   7   8  -3    3.94    0.81
   8   7  -3    4.71    0.86
   7   8  -4   -0.39    0.40
   7   8   4   -0.05    0.27
   8   7  -4    0.18    0.44
   8   7   4   -0.20    0.42
   7   8  -4    0.53    0.37
   8   7  -4    0.06    0.33
   7   8  -5    1.89    0.59
   7   8   5    1.64    0.42
   8   7  -5    1.68    0.53
   8   7   5    0.72    0.33
   7   8  -5    2.24    0.65
   8   7  -5    2.53    0.68
   8   7  -6   -0.10    0.27
   8   7   6   -0.27    0.37
   7   8  -6    0.93    0.57
   8   7  -6    0.40    0.53
   7   8  -6    0.15    0.30
   7   8   6    0.50    0.37
   9   6   0    3.29    0.77
   6   9   0    4.06    0.81
   6   9   0    3.62    0.57
   9   6  -1    0.76    0.37
   9   6   1    1.10    0.49
   6   9  -1    1.62    0.52
   6   9   1    0.94    0.44
   6   9  -1    1.39    0.42
   6   9  -2   62.04    3.16
   6   9   2   65.30    3.20
   9   6  -2   67.14    3.30
   9   6   2   67.17    3.59
   6   9  -2   65.16    2.88
   6   9  -3    1.50    0.57
   6   9   3    1.43    0.53
   6   9  -3    0.98    0.45
   9   6  -3    1.58    0.49
   9   6  -3    1.65    0.51
   9   6   3    1.95    0.65
   6   9  -4    3.24    0.76
   6   9   4    3.50    0.70
   6   9  -4    3.51    0.75
   9   6  -4    3.39    0.70
   9   6   4    2.13    0.56
   9   6  -4    2.46    0.70
   9   6  -5    0.02    0.32
   9   6   5    0.62    0.31
   9   6  -5    0.16    0.32
   6   9  -5    0.79    0.43
   9   6  -6   27.26    1.94
   9   6   6   27.80    1.88
   6   9  -6   25.26    1.83
   6   9   6   27.73    1.79
  15  -9  -7    0.67    0.43
   5  10   0    1.68    0.54
  10   5   0    0.67    0.36
   5  10  -1    6.47    1.05
   5  10   1    7.15    1.06
  10   5  -1    7.16    1.08
  10   5   1    4.83    0.98
   5  10  -1    6.50    0.81
   5  10  -2    1.90    0.58
   5  10   2    1.78    0.58
  10   5  -2    1.77    0.56
  10   5   2    1.66    0.63
   5  10  -2    2.28    0.57
   5  10  -3    5.89    0.99
   5  10   3    5.04    0.89
  10   5  -3    6.58    1.04
  10   5   3    5.73    1.16
   5  10  -3    4.46    0.77
  10   5  -4    0.72    0.44
  10   5  -4    0.88    0.36
  10   5   4    1.46    0.54
   5  10  -4    1.10    0.50
   5  10   4    0.98    0.40
  10   5  -5    3.45    0.86
  10   5  -5    4.76    0.87
  10   5   5    5.31    0.85
   5  10  -5    3.29    0.73
   5  10   5    4.66    0.75
  10   5  -6    0.26    0.31
  10   5   6    0.82    0.39
   5  10  -6    0.28    0.33
   5  10   6    1.04    0.43
  15 -10  -7    0.48    0.30
  11   4   0   -0.13    0.35
   4  11   0    0.55    0.38
  11   4  -1    1.05    0.44
  11   4   1    0.78    0.46
   4  11  -1    1.66    0.52
   4  11   1    1.25    0.43
  11   4  -2   -0.56    0.42
  11   4   2    0.10    0.38
   4  11  -2    0.13    0.26
   4  11   2   -0.04    0.30
  11   4  -3    1.91    0.61
  11   4   3    2.01    0.79
   4  11  -3    1.05    0.49
   4  11   3    1.32    0.46
  11   4  -4   -0.35    0.40
  11   4   4   -0.15    0.31
  11   4  -4   -0.05    0.36
   4  11  -4    0.22    0.25
   4  11   4    0.27    0.34
   4  11  -5    0.58    0.37
   4  11   5    0.22    0.36
  11   4  -5    0.48    0.37
  11   4  -5    1.09    0.45
   4  11  -6    0.25    0.28
   4  11   6   -0.26    0.37
  11   4  -6    0.40    0.50
  11   4  -6    0.14    0.33
  11   4   6   -0.50    0.51
  15 -11  -7    0.43    0.27
  12   3   0   11.71    1.45
   3  12   0   11.35    1.31
  12   3  -1    0.33    0.46
  12   3   1    0.28    0.38
   3  12  -1    1.31    0.55
  12   3  -2   30.39    2.17
  12   3   2   29.16    2.58
   3  12  -2   26.12    2.01
   3  12   2   28.46    1.97
   3  12  -3    0.97    0.52
   3  12   3    0.77    0.36
  12   3  -3    1.31    0.55
  12   3   3    0.30    0.38
  12   3  -4    8.99    1.19
  12   3   4    7.81    1.28
   3  12  -4    8.27    1.12
   3  12   4    9.64    1.13
  12   3  -5    0.82    0.46
  12   3   5    0.80    0.42
   3  12  -5    1.18    0.48
   3  12   5    1.40    0.50
  12   3  -5    0.86    0.39
  12   3   6   15.58    1.60
   3  12  -6   12.42    1.30
   3  12   6   14.90    1.33
  15 -12  -7    0.01    0.23
   2  13   0   -0.40    0.36
  13   2   0   -0.37    0.45
  13   2  -1    1.85    0.57
   2  13  -1    1.66    0.57
   2  13   1    1.09    0.45
  13   2   1    2.67    0.79
  13   2  -2   -0.14    0.44
  13   2   2   -0.05    0.37
   2  13  -2    0.93    0.43
   2  13   2   -0.40    0.37
  13   2  -3    2.41    0.66
  13   2   3    3.15    0.91
   2  13  -3    1.41    0.54
   2  13   3    1.71    0.50
   2  13  -4    0.10    0.29
   2  13   4    0.34    0.34
  13   2  -4    0.24    0.38
  13   2   4    0.35    0.40
  15  -2  -5    0.27    0.40
   2  13  -5    0.71    0.35
   2  13   5    0.70    0.42
  13   2  -5    0.79    0.58
  13   2   5    1.15    0.55
  15  -2   5    0.02    0.24
  13   2  -5    1.04    0.59
  13   2   6    0.45    0.39
  15  -2   6    0.10    0.26
   1  14   0    0.08    0.26
  -1  15   0    0.39    0.37
  14   1   0   -0.44    0.40
   1  14  -1    2.95    0.77
   1  14   1    3.45    0.73
  14   1  -1    2.71    0.74
  14   1   1    2.54    0.82
  -1  15   1    2.86    0.62
  -1  15  -1    2.62    0.69
  14   1  -2    0.05    0.38
  14   1   2   -0.24    0.44
   1  14  -2    0.03    0.27
   1  14   2    0.63    0.48
   1  14  -3    2.28    0.65
   1  14   3    4.04    0.77
  14   1  -3    3.08    0.76
  14   1   3    1.72    0.67
  14   1  -4   -0.39    0.48
  14   1   4    0.15    0.42
   1  14   4    0.15    0.35
   1  14  -4    0.42    0.35
  15  -1  -4   -0.18    0.41
  15  -1   4   -0.54    0.47
  15  -1  -5    1.83    0.67
  15  -1   5   -0.16    0.38
  14   1  -5    0.84    0.51
  14   1   5    1.34    0.54
  15  -1   6   -0.16    0.32
  14   1   6    0.89    0.51
  15   0   0    2.69    0.74
   0  15   0    2.08    0.57
   0  15  -1   -0.01    0.30
   0  15   1    0.94    0.50
  15   0  -1   -0.06    0.34
  15   0   1    0.52    0.69
  15   0  -2   32.39    2.36
  15   0   2   29.34    3.01
   0  15   2   31.21    2.12
   0  15  -2   31.16    2.29
  15   0  -3    0.54    0.46
  15   0   3    0.09    0.57
   0  15   3    0.52    0.42
   0  15  -3    0.19    0.34
  15   0  -4    2.06    0.68
  15   0   4    0.03    0.46
  15   0  -5   -0.01    0.43
  15   0   5   -0.29    0.39
   8   8   0    2.54    0.68
   8   8  -1    1.73    0.60
   8   8   1    1.91    0.58
   8   8  -1    2.02    0.48
   8   8  -2   52.10    2.96
   8   8   2   47.19    2.95
   8   8  -2   47.24    2.58
   8   8  -3    1.84    0.62
   8   8   3    1.09    0.51
   8   8  -3    1.19    0.48
   8   8  -4    3.77    0.78
   8   8   4    3.17    0.70
   8   8  -4    4.86    0.93
   8   8  -5    0.12    0.29
   8   8   5    1.32    0.48
   8   8  -5    2.46    0.81
   8   8   6   21.73    1.69
   8   8  -6   25.30    2.27
   7   9   0    0.26    0.41
   7   9   0    0.57    0.31
   9   7   0   -0.37    0.48
   7   9  -1    5.07    0.97
   7   9   1    5.04    0.97
   7   9  -1    5.72    0.83
   9   7  -1    5.33    1.02
   9   7   1    4.05    0.85
   7   9  -2    0.49    0.45
   7   9   2   -0.80    0.54
   7   9  -2    0.04    0.43
   9   7  -2   -0.12    0.36
   9   7   2   -0.68    0.61
   9   7  -2    1.02    0.44
   7   9  -3    3.22    0.78
   7   9   3    3.53    0.80
   7   9  -3    4.29    0.85
   9   7  -3    3.96    0.83
   9   7   3    3.42    0.75
   9   7  -3    3.58    0.78
   7   9  -4    0.17    0.29
   7   9   4    0.01    0.27
   9   7  -4    0.01    0.30
   9   7   4    0.00    0.40
   7   9  -4    0.28    0.29
   9   7  -4   -0.09    0.29
   7   9  -5    2.20    0.60
   7   9   5    2.26    0.61
   9   7  -5    1.97    0.59
   9   7   5    2.98    0.67
   7   9  -5    3.59    0.85
   9   7  -5    3.49    0.87
   9   7   6   -0.26    0.32
   9   7  -6   -0.01    0.32
   7   9   6    0.00    0.23
  10   6   0   -0.21    0.32
   6  10   0   -0.01    0.25
  10   6  -1    2.53    0.72
  10   6   1    2.69    0.75
   6  10  -1    2.65    0.73
   6  10   1    1.53    0.59
   6  10  -1    2.66    0.59
   6  10  -2   -0.21    0.37
   6  10   2   -0.12    0.32
   6  10  -2    0.38    0.37
  10   6  -2   -0.07    0.28
  10   6   2    0.27    0.48
   6  10  -3    3.29    0.74
   6  10   3    3.20    0.77
   6  10  -3    2.20    0.58
  10   6  -3    3.42    0.73
  10   6  -3    2.88    0.74
  10   6   3    3.42    0.87
   6  10  -4    0.62    0.36
   6  10   4    0.12    0.27
   6  10  -4    0.38    0.30
  10   6  -4    0.84    0.47
  10   6  -4   -0.39    0.37
  10   6   4   -0.06    0.38
  10   6  -5    1.35    0.51
  10   6   5   -0.02    0.39
  10   6  -5    2.25    0.74
   6  10  -5    0.76    0.46
   6  10   5    1.06    0.48
  10   6   6    0.36    0.29
  10   6  -6    0.07    0.37
   6  10   6   -0.23    0.33
   5  11   0    5.40    0.96
  11   5   0    5.28    1.01
   5  11  -1    2.58    0.67
   5  11   1    2.02    0.64
  11   5  -1    1.39    0.56
  11   5   1    1.73    0.64
  11   5  -2   36.99    2.43
  11   5   2   32.72    2.68
   5  11  -2   32.32    2.33
   5  11   2   33.19    2.32
  11   5  -3    2.06    0.63
  11   5   3    1.75    0.74
   5  11  -3    0.64    0.41
   5  11   3    1.95    0.60
  11   5  -4    6.31    1.04
   5  11  -4    4.67    0.86
   5  11   4    5.81    0.94
  11   5  -4    6.00    0.98
  11   5   4    4.45    0.94
  11   5  -5    1.24    0.55
  11   5  -5    0.62    0.36
  11   5   5    0.27    0.33
   5  11  -5    0.56    0.43
   5  11   5    0.63    0.36
  11   5   6   14.37    1.46
   5  11   6   16.32    1.46
  12   4   0    0.23    0.33
   4  12   0    0.04    0.33
  12   4  -1    0.75    0.46
  12   4   1    0.56    0.36
   4  12  -1    0.18    0.40
   4  12   1    0.64    0.52
  12   4  -2   -0.06    0.32
  12   4   2    0.42    0.37
   4  12  -2   -0.04    0.40
   4  12   2    1.12    0.54
  12   4  -3    0.34    0.40
  12   4   3    0.30    0.38
   4  12  -3    0.88    0.51
   4  12   3    1.02    0.55
  12   4  -4    0.20    0.35
  12   4   4    0.78    0.55
   4  12  -4    0.17    0.33
   4  12   4   -0.33    0.39
  12   4  -4   -0.29    0.45
   4  12  -5    0.04    0.27
   4  12   5    0.18    0.25
  12   4  -5    0.13    0.36
  12   4  -5   -0.12    0.32
  12   4   5    0.31    0.36
   4  12   6   -0.10    0.27
  12   4   6   -0.74    0.53
  13   3   0    1.94    0.74
   3  13   0    1.62    0.59
  13   3  -1    1.26    0.57
  13   3   1    1.03    0.54
   3  13  -1   -0.38    0.36
   3  13   1    0.51    0.43
   3  13  -2    0.48    0.34
   3  13   2    1.35    0.47
  13   3  -2    0.43    0.35
  13   3   2    1.59    0.62
   3  13  -3    0.25    0.39
   3  13   3    0.71    0.35
  13   3  -3    0.72    0.47
  13   3   3   -0.02    0.45
  13   3  -4    1.17    0.52
  13   3   4    0.62    0.35
   3  13  -4    1.11    0.53
   3  13   4    0.28    0.38
  13   3  -5    1.15    0.56
  13   3   5    0.87    0.52
   3  13  -5    0.87    0.49
   3  13   5    0.73    0.46
  13   3  -5    0.33    0.42
  14   2   0    4.99    1.04
   2  14   0    5.38    0.95
  14   2  -1    0.75    0.55
  14   2   1    1.96    0.77
   2  14  -1    1.04    0.48
   2  14   1    2.50    0.61
  14   2  -2   17.85    1.81
  14   2   2   18.33    2.28
   2  14  -2   20.75    1.86
   2  14   2   21.93    1.78
  14   2  -3    1.12    0.49
  14   2   3    0.06    0.42
   2  14  -3    1.24    0.52
   2  14   3    1.19    0.54
   2  14  -4    3.32    0.76
   2  14   4    4.62    0.83
  14   2  -4    5.35    1.04
  14   2   4    5.11    1.07
  16  -2  -5    1.18    0.63
   2  14  -5    0.48    0.41
  14   2  -5    1.02    0.57
  14   2   5    1.04    0.58
  16  -2   5    0.08    0.24
   2  14   5    1.05    0.43
  15   1   0    1.00    0.40
   1  15   0    1.28    0.52
  15   1  -1    5.54    1.02
  15   1   1    6.15    1.32
   1  15  -1    7.03    1.14
   1  15   1    6.73    1.05
   1  15  -2    1.72    0.64
   1  15   2    1.57    0.60
  15   1  -2    1.37    0.58
  15   1   2    1.54    0.74
  16  -1  -3    4.01    0.85
   1  15  -3    5.90    1.02
   1  15   3    5.82    0.94
  15   1  -3    3.56    0.86
  15   1   3    5.79    1.31
  16  -1   3    2.85    0.94
  15   1  -4    0.74    0.40
  15   1   4    0.55    0.41
  16  -1  -4    0.40    0.43
   1  15   4    1.37    0.51
   1  15  -4    0.58    0.42
  16  -1   4    0.51    0.45
  16  -1  -5    3.70    0.94
  15   1  -5    2.89    0.85
  15   1   5    2.63    0.78
  16  -1   5    1.54    0.54
  16   0   0   -0.49    0.43
   0  16   0    0.03    0.31
  16   0  -1    2.47    0.72
  16   0   1    2.01    0.80
   0  16   1    2.28    0.66
   0  16  -1    2.28    0.70
  16   0  -2   -0.20    0.40
  16   0   2   -0.71    0.76
   0  16   2    1.02    0.48
   0  16  -2    0.83    0.49
  16   0  -3    1.13    0.49
  16   0   3    0.51    0.51
  16   0  -4   -0.72    0.60
  16   0   4   -0.33    0.57
  16   0  -5    1.28    0.68
   8   9   0    1.65    0.63
   9   8   0    1.09    0.53
   8   9  -1    0.47    0.38
   8   9   1    1.09    0.52
   9   8  -1    0.71    0.51
   9   8   1    0.42    0.44
   8   9  -1    0.51    0.38
   8   9  -2    1.41    0.59
   8   9   2    0.27    0.30
   9   8  -2    0.89    0.47
   9   8   2    0.85    0.33
   8   9  -2    1.07    0.46
   9   8  -2    0.82    0.39
   8   9  -3    0.82    0.48
   8   9   3    0.14    0.30
   9   8  -3    0.42    0.28
   9   8   3    0.72    0.31
   8   9  -3    1.14    0.48
   9   8  -3    0.49    0.40
   8   9  -4    1.43    0.49
   8   9   4    0.58    0.37
   9   8  -4    0.99    0.51
   9   8   4    0.21    0.29
   8   9  -4    1.37    0.58
   9   8  -4    0.85    0.48
   8   9  -5    0.47    0.38
   8   9   5    0.07    0.28
   9   8  -5   -0.01    0.30
   9   8   5    1.07    0.50
   8   9  -5    1.00    0.63
   9   8  -5    1.26    0.61
   7  10   0   12.98    1.56
  10   7   0   13.96    1.65
   7  10  -1    5.05    0.99
   7  10   1    4.28    0.95
  10   7  -1    3.52    0.90
  10   7   1    3.38    0.88
   7  10  -2   14.91    1.61
   7  10   2   11.74    1.48
  10   7  -2   12.20    1.47
  10   7   2   13.12    1.62
   7  10  -2   13.87    1.36
   7  10  -3    5.75    1.02
   7  10   3    4.08    0.86
   7  10  -3    3.92    0.76
  10   7  -3    3.65    0.81
  10   7   3    4.49    0.94
  10   7  -3    4.76    0.91
   7  10  -4   11.54    1.37
   7  10   4   11.21    1.31
  10   7  -4   10.83    1.36
   7  10  -4   10.40    1.33
  10   7   4    8.90    1.23
  10   7  -4   10.29    1.38
  10   7  -5    2.64    0.71
  10   7   5    1.98    0.60
  10   7  -5    2.18    0.71
   7  10  -5    2.28    0.64
   7  10   5    1.31    0.47
  11   6   0    1.44    0.62
   6  11   0    1.73    0.59
  11   6  -1    0.56    0.45
  11   6   1    0.28    0.47
   6  11  -1    0.71    0.45
   6  11   1    0.81    0.55
   6  11  -2    0.89    0.45
   6  11   2    1.42    0.59
  11   6  -2    1.63    0.53
  11   6   2    0.48    0.48
   6  11   3    0.83    0.51
  11   6  -3    0.28    0.27
  11   6  -3    0.65    0.49
  11   6   3    1.19    0.66
   6  11  -3    0.07    0.38
  11   6  -4    1.56    0.66
  11   6  -4    1.25    0.55
  11   6   4    0.35    0.36
   6  11  -4    1.81    0.52
   6  11   4    2.04    0.63
  11   6  -5    0.71    0.49
  11   6   5   -0.40    0.43
  11   6  -5   -0.28    0.47
   6  11  -5    0.68    0.50
   6  11   5    0.39    0.39
  12   5   0    2.83    0.83
   5  12   0    1.86    0.60
  12   5  -1    0.72    0.47
  12   5   1   -0.06    0.35
   5  12  -1    0.05    0.38
   5  12   1    1.07    0.48
  12   5  -2    2.41    0.71
  12   5   2    2.62    0.95
   5  12  -2    0.84    0.41
   5  12   2    2.50    0.68
  12   5  -3    0.61    0.47
  12   5   3    1.06    0.59
   5  12  -3    0.48    0.42
   5  12   3    1.57    0.61
  12   5  -4    1.81    0.66
   5  12  -4    1.92    0.64
   5  12   4    1.09    0.43
  12   5  -4    1.95    0.62
  12   5   4    2.45    0.82
  12   5  -5   -0.44    0.53
   5  12  -5   -0.40    0.39
   5  12   5    0.21    0.34
  12   5  -5    0.94    0.47
  12   5   5    0.97    0.45
  13   4   0   14.02    1.66
   4  13   0   13.50    1.56
  13   4  -1    5.18    1.00
  13   4   1    3.81    0.97
   4  13  -1    5.46    1.04
   4  13   1    4.69    0.93
  13   4  -2    7.16    1.08
  13   4   2    9.34    1.57
   4  13  -2    7.85    1.21
   4  13   2    8.66    1.22
  13   4  -3    3.95    0.85
  13   4   3    3.26    0.98
   4  13  -3    3.44    0.83
   4  13   3    4.02    0.83
  13   4  -4   11.26    1.44
  13   4   4   12.80    1.66
  13   4  -4   11.95    1.54
   4  13  -4   10.30    1.35
   4  13   4   10.46    1.24
   4  13  -5    2.41    0.69
   4  13   5    2.14    0.63
  13   4  -5    1.34    0.61
  13   4   5    2.86    0.84
   3  14   0    4.84    0.97
  14   3   0    4.75    1.03
   3  14  -1    1.17    0.49
   3  14   1    0.41    0.47
  14   3  -1    0.97    0.43
  14   3   1    1.21    0.64
   3  14  -2    4.45    0.92
   3  14   2    6.12    1.00
  14   3  -2    4.57    0.95
  14   3   2    4.18    1.07
  14   3  -3    1.74    0.63
   3  14  -3    0.31    0.29
   3  14   3    0.53    0.39
  14   3   3    0.53    0.58
  14   3  -4    3.82    0.90
  14   3   4    4.06    1.05
   3  14  -4    3.23    0.77
   3  14   4    4.72    0.87
  14   3  -5    0.43    0.49
  14   3   5    0.10    0.35
   3  14  -5    0.63    0.50
   3  14   5    0.56    0.45
  17  -3  -5   -0.33    0.49
  15   2   0    0.03    0.44
   2  15   0    0.64    0.48
  15   2  -1    0.85    0.51
  15   2   1    1.33    0.65
   2  15  -1    0.60    0.48
   2  15   1   -0.08    0.36
  15   2  -2    1.46    0.67
  15   2   2    1.40    0.75
   2  15  -2    0.10    0.42
   2  15   2    1.94    0.63
   2  15  -3    0.43    0.46
   2  15   3    0.30    0.42
  15   2  -3    0.91    0.50
  15   2   3    1.08    0.73
  17  -2  -4    0.25    0.43
   2  15  -4    0.25    0.39
   2  15   4    0.29    0.38
  17  -2   4   -0.19    0.53
  15   2  -4    0.75    0.57
  15   2   4    0.37    0.36
  15   2  -5   -0.27    0.38
  17  -2  -5    0.35    0.59
  17  -1   0    5.82    1.11
   1  16   0    4.29    0.89
  16   1   0    5.70    1.15
  17  -1   1    0.79    0.71
   1  16  -1   -0.18    0.37
   1  16   1    0.80    0.49
  16   1  -1    0.42    0.43
  16   1   1    0.98    0.68
  17  -1  -1   -0.20    0.44
  17  -1   2    9.72    1.77
   1  16  -2    7.23    1.19
   1  16   2    8.86    1.23
  16   1  -2    8.54    1.26
  16   1   2    8.17    1.64
  17  -1  -2    6.90    1.11
  16   1  -3    0.06    0.40
   1  16  -3    0.24    0.29
  17  -1  -3   -0.55    0.42
   9   9   0   30.27    2.48
   9   9  -1    1.14    0.58
   9   9   1   -0.37    0.35
   9   9  -2    2.11    0.71
   9   9   2    1.05    0.46
   9   9  -3    0.57    0.44
   9   9   3    0.86    0.47
   9   9  -3    0.37    0.38
   9   9  -4   22.07    1.95
   9   9   4   18.85    1.82
   9   9  -4   22.13    1.99
   9   9  -5    0.55    0.47
   9   9   5    0.19    0.31
   9   9  -5    0.53    0.33
   8  10   0   -0.63    0.51
  10   8   0    0.54    0.46
   8  10  -1    0.63    0.44
   8  10   1    0.33    0.41
  10   8  -1    0.09    0.30
  10   8   1    0.83    0.54
   8  10  -2    0.15    0.39
   8  10   2    0.10    0.33
  10   8  -2   -0.25    0.42
  10   8   2   -0.16    0.39
  10   8  -2    0.20    0.46
   8  10  -3   -0.06    0.39
   8  10   3    0.57    0.51
  10   8  -3    0.11    0.31
  10   8   3    0.37    0.33
  10   8  -3    0.13    0.28
   8  10  -4   -0.01    0.35
   8  10   4   -0.49    0.41
  10   8  -4    0.30    0.40
  10   8   4   -0.19    0.57
   8  10  -4    1.19    0.58
  10   8  -4    0.74    0.56
  10   8  -5   -0.13    0.38
  10   8   5    0.33    0.39
  10   8  -5    0.60    0.48
   8  10  -5    0.52    0.43
   8  10   5    0.31    0.31
   7  11   0    0.51    0.39
  11   7   0    0.88    0.49
   7  11  -1    0.35    0.49
   7  11   1    0.24    0.36
  11   7  -1   -0.22    0.36
  11   7   1    0.68    0.52
   7  11  -2    0.65    0.44
   7  11   2    0.03    0.30
  11   7  -2    0.49    0.32
  11   7   2    0.01    0.46
   7  11  -3    0.83    0.50
   7  11   3    0.90    0.44
  11   7  -3    0.59    0.50
  11   7   3   -0.80    0.60
  11   7  -3    0.12    0.30
  11   7  -4    0.18    0.34
  11   7   4    0.34    0.38
  11   7  -4    1.32    0.64
   7  11  -4   -0.01    0.38
   7  11   4    0.47    0.42
  11   7  -5    0.42    0.43
  11   7   5    0.17    0.32
  11   7  -5   -0.27    0.41
   7  11  -5    0.56    0.49
   7  11   5    0.47    0.45
  12   6   0   21.75    2.13
   6  12   0   17.83    1.93
  12   6  -1    1.76    0.68
  12   6   1    2.18    0.80
   6  12  -1    1.44    0.56
   6  12   1    0.30    0.38
  12   6  -2    3.69    0.85
  12   6   2    2.82    0.88
   6  12  -2    3.54    0.85
  12   6  -3    1.57    0.59
  12   6  -3    0.75    0.50
  12   6   3    2.02    0.86
   6  12  -3    1.71    0.55
   6  12   3    1.90    0.59
  12   6  -4   12.66    1.56
  12   6   4   15.09    1.79
  12   6  -4   13.69    1.67
   6  12  -4   12.48    1.47
   6  12   4   13.78    1.51
  12   6  -5    0.66    0.57
  12   6   5    0.65    0.43
   6  12  -5    0.41    0.41
   6  12   5    0.22    0.32
  13   5   0    2.12    0.76
   5  13   0    2.94    0.86
  13   5  -1    2.57    0.74
  13   5   1    2.12    0.80
   5  13  -1    1.55    0.64
   5  13   1    2.80    0.78
  13   5  -2    1.43    0.57
  13   5   2    2.00    0.87
   5  13  -2    2.19    0.69
   5  13   2    3.47    0.86
  13   5  -3    1.96    0.69
  13   5   3    1.90    0.84
   5  13  -3    2.16    0.67
   5  13   3    1.84    0.63
   5  13  -4    1.06    0.56
   5  13   4    1.60    0.61
  13   5  -4    2.01    0.81
  13   5  -4    1.66    0.64
  13   5   4    2.62    0.94
   5  13  -5    1.04    0.55
  13   5  -5    0.82    0.60
  14   4   0    1.22    0.63
   4  14   0    0.85    0.48
  14   4  -1    0.37    0.44
  14   4   1    1.25    0.62
   4  14  -1    0.87    0.42
   4  14   1    0.95    0.57
  14   4  -2    0.14    0.30
  14   4   2    0.06    0.39
   4  14  -2    1.56    0.59
   4  14   2    0.61    0.53
  14   4  -3    0.72    0.49
  14   4   3    0.30    0.36
   4  14  -3    0.39    0.47
   4  14   3    0.46    0.42
  14   4  -4    0.62    0.54
   4  14  -4   -0.05    0.36
  15   3   0   14.49    1.80
   3  15   0   11.20    1.48
   3  15  -1    0.45    0.29
   3  15   1    0.18    0.38
  15   3  -1   -0.23    0.33
  15   3   1    0.44    0.48
   3  15  -2    2.69    0.79
  15   3  -2    3.03    0.79
   9  10   0    0.19    0.38
  10   9   0    0.19    0.38
   9  10  -1    0.48    0.44
   9  10   1    0.55    0.31
  10   9  -1    0.47    0.37
  10   9   1    0.88    0.61
   9  10  -2    1.42    0.56
   9  10   2    0.85    0.49
  10   9  -2    1.03    0.55
  10   9   2    1.17    0.58
   9  10  -3   -0.38    0.41
  10   9  -3    0.42    0.42
  10   9  -4    0.61    0.47
   8  11   0   20.26    2.12
  11   8   0   16.49    1.88
   8  11  -1    1.48    0.63
   8  11   1    1.00    0.51
  11   8  -1    1.29    0.59
  11   8   1    0.41    0.40
   8  11  -2    0.80    0.56
   8  11   2    1.35    0.70
  11   8  -2    2.53    0.76
  11   8   2    0.92    0.43
   8  11  -3    0.61    0.45
  11   8  -3    0.05    0.35
  11   8  -3   -0.29    0.52
  11   8  -4   13.43    1.69
   7  12   0    1.05    0.56
  12   7   0    0.80    0.41
   7  12  -1    0.78    0.54
   7  12   1    1.68    0.64
  12   7  -1    1.11    0.47
  12   7   1    2.31    0.84
  12   7  -2    1.04    0.55
   7  12  -2    0.65    0.47
  12   7  -3    1.45    0.60
  12   7  -4    1.09    0.59
  13   6  -3   -0.14    0.43
   0   0   0    0.00    0.00
;
_shelx_hkl_checksum              60870
_shelx_res_file
;
TITL imzPbInP63barom in P6(3)/m
CELL  0.71073  15.5643  15.5643   8.0123   90.000   90.000  120.000
ZERR     6.00   0.0006   0.0006   0.0005    0.000    0.000    0.000
LATT   1
SYMM  - Y,   X - Y,   Z
SYMM  - X + Y, - X,   Z
SYMM  - X, - Y, 1/2 + Z
SYMM    Y, - X + Y, 1/2 + Z
SYMM    X - Y,   X, 1/2 + Z
SFAC  C    N    I    PB   H
UNIT  18   12   18   6    30
MERG   2
FMAP   2
PLAN   20
ACTA
HTAB
HTAB C3 I4
EQIV $1 -x+y+1, -x+1, z
HTAB C3 I4_$1
EQIV $2 y, -x+y, -z+1
HTAB N1 I3_$2
BOND
L.S.   4
WGHT    0.056400  177.102295
FVAR       0.03955
C3    1    0.399169    0.354236    0.750000    10.50000    0.06893
AFIX  43
H3    5    0.464959    0.369128    0.750000    10.50000   -1.20000
AFIX   0
N1    2    0.333674    0.339409    0.611261    11.00000    0.12342
AFIX  43
H1    5    0.345700    0.337777    0.506902    11.00000   -1.20000
AFIX   0
C1    1    0.261794    0.330222    0.670220    11.00000    0.08567
AFIX  43
H1A   5    0.208591    0.323422    0.607115    11.00000   -1.20000
AFIX   0
MOLE    1
PB1   4    0.000000    0.000000    0.500000    10.16667    0.04464    0.04464 =
         0.02168    0.00000    0.00000    0.02232
PB2   4    0.333333    0.666667    0.503393    10.33333    0.04315    0.04315 =
         0.02032    0.00000    0.00000    0.02158
I3    3    0.158743    0.513427    0.750000    10.50000    0.04804    0.07944 =
         0.03893    0.00000    0.00000    0.00210
I4    3    0.498573    0.180581    0.750000    10.50000    0.05137    0.04448 =
         0.03839    0.00000    0.00000    0.00229
I5    3   -0.025116    0.149133    0.750000    10.50000    0.05155    0.04304 =
         0.03027    0.00000    0.00000    0.02942
HKLF 4
REM  imzPbInP63barom in P6(3)/m
REM R1 =  0.0956 for     977 Fo > 4sig(Fo)  and  0.1182 for all    1277 data
REM     35 parameters refined using      0 restraints
END
WGHT      0.0565    177.1542
REM Instructions for potential hydrogen bonds
HTAB C3 I4
HTAB C3 I4_$1
HTAB N1 I3_$2
REM Highest difference peak  5.092,  deepest hole-10.075,  1-sigma level  0.487
Q1    1   0.2047  0.4846  0.7500  10.50000  0.05    5.09
Q2    1  -0.0713  0.1212  0.7500  10.50000  0.05    3.27
Q3    1   0.3333  0.6667  0.2500  10.16667  0.05    2.10
Q4    1  -0.1681  0.1557  0.7500  10.50000  0.05    1.78
Q5    1   0.1314  0.3028  0.7500  10.50000  0.05    1.71
Q6    1   0.4449  0.4321  0.7500  10.50000  0.05    1.70
Q7    1   0.0187  0.0532  0.7500  10.50000  0.05    1.59
Q8    1   0.1475  0.3660  0.7500  10.50000  0.05    1.59
Q9    1   0.4135  0.3799  0.6633  11.00000  0.05    1.54
Q10   1   0.6419  0.2405  0.7500  10.50000  0.05    1.53
Q11   1   0.0377  0.5181  0.7500  10.50000  0.05    1.52
Q12   1   0.4414  0.2676  0.7500  10.50000  0.05    1.45
Q13   1   0.3891  0.4177  0.7500  10.50000  0.05    1.38
Q14   1   0.0761  0.5283  0.7500  10.50000  0.05    1.37
Q15   1   0.4805  0.0697  0.7500  10.50000  0.05    1.35
Q16   1   0.3333  0.6667  0.7500  10.16667  0.05    1.32
Q17   1   0.2070  0.3399  0.7500  10.50000  0.05    1.32
Q18   1   0.2928  0.6191  0.7500  10.50000  0.05    1.31
Q19   1   0.1481  0.2464  0.7500  10.50000  0.05    1.30
Q20   1   0.0432  0.4422  0.7500  10.50000  0.05    1.27
;
_shelx_res_checksum              47450
_shelxl_version_number           201.4
loop_
_space_group_symop_operation_xyz
'x, y, z'
'-y, x-y, z'
'-x+y, -x, z'
'-x, -y, z+1/2'
'y, -x+y, z+1/2'
'x-y, x, z+1/2'
'-x, -y, -z'
'y, -x+y, -z'
'x-y, x, -z'
'x, y, -z-1/2'
'-y, x-y, -z-1/2'
'-x+y, -x, -z-1/2'
loop_
_atom_site_type_symbol
_atom_site_label
_atom_site_fract_x
_atom_site_fract_y
_atom_site_fract_z
_atom_site_U_iso_or_equiv
_atom_site_adp_type
_atom_site_calc_flag
_atom_site_occupancy
C C3 0.399(4) 0.354(4) 0.7500 0.069(13) Uiso d 1
H H3 0.4650 0.3691 0.7500 0.083 Uiso calc 1
N N1 0.334(3) 0.339(3) 0.611(8) 0.123(16) Uiso d 1
H H1 0.3457 0.3378 0.5069 0.148 Uiso calc 1
C C1 0.262(3) 0.330(3) 0.670(5) 0.086(12) Uiso d 1
H H1A 0.2086 0.3234 0.6071 0.103 Uiso calc 1
Pb Pb1 0.0000 0.0000 0.5000 0.0370(6) Uani d 1
Pb Pb2 0.3333 0.6667 0.5034(2) 0.0355(5) Uani d 1
I I3 0.1587(2) 0.5134(3) 0.7500 0.0687(10) Uani d 1
I I4 0.4986(2) 0.1806(2) 0.7500 0.0544(8) Uani d 1
I I5 -0.02512(19) 0.14913(18) 0.7500 0.0391(6) Uani d 1
loop_
_atom_site_aniso_label
_atom_site_aniso_U_11
_atom_site_aniso_U_22
_atom_site_aniso_U_33
_atom_site_aniso_U_12
_atom_site_aniso_U_13
_atom_site_aniso_U_23
Pb1 0.0446(9) 0.0446(9) 0.0217(13) 0.0223(4) 0.000 0.000
Pb2 0.0432(6) 0.0432(6) 0.0203(10) 0.0216(3) 0.000 0.000
I3 0.0480(17) 0.079(2) 0.0389(19) 0.0021(15) 0.000 0.000
I4 0.0514(16) 0.0445(15) 0.0384(17) 0.0023(12) 0.000 0.000
I5 0.0516(13) 0.0430(13) 0.0303(14) 0.0294(12) 0.000 0.000
loop_
_atom_type_symbol
_atom_type_description
_atom_type_scat_dispersion_real
_atom_type_scat_dispersion_imag
_atom_type_scat_source
C C 0.0033 0.0016 'International Tables Vol C Tables 4.2.6.8 and 6.1.1.4'
N N 0.0061 0.0033 'International Tables Vol C Tables 4.2.6.8 and 6.1.1.4'
I I -0.4742 1.8119 'International Tables Vol C Tables 4.2.6.8 and 6.1.1.4'
Pb Pb -3.3944 10.1111 'International Tables Vol C Tables 4.2.6.8 and 6.1.1.4'
H H 0.0000 0.0000 'International Tables Vol C Tables 4.2.6.8 and 6.1.1.4'
loop_
_geom_angle_atom_site_label_1
_geom_angle_atom_site_label_2
_geom_angle_atom_site_label_3
_geom_angle_site_symmetry_1
_geom_angle_site_symmetry_3
_geom_angle
N1 C3 N1 . 10_557 100(5)
C1 N1 C3 . . 105(6)
N1 C1 C1 . 10_557 114(4)
I5 Pb1 I5 9_556 3 180.0
I5 Pb1 I5 9_556 7_556 85.68(4)
I5 Pb1 I5 3 7_556 94.32(4)
I5 Pb1 I5 9_556 2 94.32(4)
I5 Pb1 I5 3 2 85.68(4)
I5 Pb1 I5 7_556 2 94.32(4)
I5 Pb1 I5 9_556 8_556 85.68(4)
I5 Pb1 I5 3 8_556 94.32(4)
I5 Pb1 I5 7_556 8_556 85.68(4)
I5 Pb1 I5 2 8_556 180.0
I5 Pb1 I5 9_556 . 94.32(4)
I5 Pb1 I5 3 . 85.68(4)
I5 Pb1 I5 7_556 . 180.00(9)
I5 Pb1 I5 2 . 85.68(4)
I5 Pb1 I5 8_556 . 94.32(4)
I4 Pb2 I4 8_566 7_666 84.57(5)
I4 Pb2 I4 8_566 9_556 84.57(5)
I4 Pb2 I4 7_666 9_556 84.57(5)
I4 Pb2 I3 8_566 3_565 95.28(7)
I4 Pb2 I3 7_666 3_565 93.46(7)
I4 Pb2 I3 9_556 3_565 178.04(8)
I4 Pb2 I3 8_566 2_665 178.04(8)
I4 Pb2 I3 7_666 2_665 95.28(8)
I4 Pb2 I3 9_556 2_665 93.46(7)
I3 Pb2 I3 3_565 2_665 86.68(6)
I4 Pb2 I3 8_566 . 93.46(7)
I4 Pb2 I3 7_666 . 178.04(8)
I4 Pb2 I3 9_556 . 95.28(8)
I3 Pb2 I3 3_565 . 86.68(6)
I3 Pb2 I3 2_665 . 86.68(6)
Pb2 I3 Pb2 10_557 . 75.16(8)
Pb2 I4 Pb2 4_665 7_666 78.04(7)
Pb1 I5 Pb1 . 4 76.54(5)
loop_
_geom_bond_atom_site_label_1
_geom_bond_atom_site_label_2
_geom_bond_site_symmetry_2
_geom_bond_distance
C3 N1 . 1.45(6)
C3 N1 10_557 1.45(6)
N1 C1 . 1.16(5)
C1 C1 10_557 1.28(8)
Pb1 I5 9_556 3.2342(18)
Pb1 I5 3 3.2342(18)
Pb1 I5 7_556 3.2342(18)
Pb1 I5 2 3.2342(18)
Pb1 I5 8_556 3.2342(18)
Pb1 I5 . 3.2342(18)
Pb2 I4 8_566 3.225(2)
Pb2 I4 7_666 3.225(2)
Pb2 I4 9_556 3.225(2)
Pb2 I3 3_565 3.240(3)
Pb2 I3 2_665 3.240(3)
Pb2 I3 . 3.240(3)
I3 Pb2 10_557 3.240(3)
I4 Pb2 4_665 3.225(2)
I4 Pb2 7_666 3.225(2)
I5 Pb1 4 3.2342(18)
loop_
_geom_hbond_atom_site_label_D
_geom_hbond_atom_site_label_H
_geom_hbond_atom_site_label_A
_geom_hbond_site_symmetry_A
_geom_hbond_distance_DH
_geom_hbond_distance_HA
_geom_hbond_distance_DA
_geom_hbond_angle_DHA
C3 H3 I4 . 0.93 3.23 3.73(5) 115.6
C3 H3 I4 3_665 0.93 2.95 3.81(5) 155.3
N1 H1 I3 8_556 0.86 3.23 3.95(6) 142.8

_cod_database_fobs_code 2107272
