#------------------------------------------------------------------------------
#$Date: 2017-08-21 08:02:19 +0300 (Mon, 21 Aug 2017) $
#$Revision: 199861 $
#$URL: file:///home/coder/svn-repositories/cod/cif/2/10/72/2107270.cif $
#------------------------------------------------------------------------------
#
# This file is available in the Crystallography Open Database (COD),
# http://www.crystallography.net/. The original data for this entry
# were provided by IUCr Journals, http://journals.iucr.org/.
#
# The file may be used within the scientific community so long as
# proper attribution is given to the journal article from which the
# data were obtained.
#
data_2107270
loop_
_publ_author_name
'Weber, Oliver J.'
'Marshall, Kayleigh L.'
'Dyson, Lewis M.'
'Weller, Mark T.'
_publ_section_title
;
 Structural diversity in hybrid organic--inorganic lead iodide materials
;
_journal_issue                   6
_journal_name_full               'Acta Crystallographica Section B'
_journal_page_first              668
_journal_page_last               678
_journal_paper_doi               10.1107/S2052520615019885
_journal_volume                  71
_journal_year                    2015
_chemical_formula_sum            'C18 H26 I6 N4 O2 Pb2'
_chemical_formula_weight         1506.20
_chemical_name_common            '1,2-Bis(4-pyridyl)ethane lead iodide'
_chemical_name_systematic
;
 ?
;
_space_group_crystal_system      monoclinic
_space_group_IT_number           14
_space_group_name_Hall           '-P 2ybc'
_space_group_name_H-M_alt        'P 1 21/c 1'
_symmetry_space_group_name_Hall  '-P 2ybc'
_symmetry_space_group_name_H-M   'P 1 21/c 1'
_atom_sites_solution_hydrogens   geom
_audit_creation_method           SHELXL-2014
_cell_angle_alpha                90
_cell_angle_beta                 98.798(3)
_cell_angle_gamma                90
_cell_formula_units_Z            2
_cell_length_a                   11.8465(4)
_cell_length_b                   17.6887(6)
_cell_length_c                   8.1762(3)
_cell_measurement_temperature    150(2)
_cell_volume                     1693.16(10)
_computing_structure_refinement  'SHELXL-2014 (Sheldrick, 2014)'
_diffrn_ambient_temperature      150(2)
_diffrn_measured_fraction_theta_full 0.998
_diffrn_measured_fraction_theta_max 0.833
_diffrn_measurement_device_type  'SuperNova, Dual, Cu at zero, EosS2'
_diffrn_radiation_type           MoK\a
_diffrn_radiation_wavelength     0.71073
_diffrn_reflns_av_R_equivalents  0.0495
_diffrn_reflns_limit_h_max       16
_diffrn_reflns_limit_h_min       -15
_diffrn_reflns_limit_k_max       24
_diffrn_reflns_limit_k_min       -23
_diffrn_reflns_limit_l_max       11
_diffrn_reflns_limit_l_min       -6
_diffrn_reflns_number            7910
_diffrn_reflns_theta_full        25.242
_diffrn_reflns_theta_max         29.336
_diffrn_reflns_theta_min         3.415
_exptl_absorpt_coefficient_mu    15.421
_exptl_absorpt_correction_T_max  1.00000
_exptl_absorpt_correction_T_min  0.62636
_exptl_absorpt_correction_type   multi-scan
_exptl_crystal_colour            yellow
_exptl_crystal_density_diffrn    2.954
_exptl_crystal_description       needle
_exptl_crystal_F_000             1320
_exptl_crystal_size_max          0.3
_exptl_crystal_size_mid          0.1
_exptl_crystal_size_min          0.05
_refine_diff_density_max         2.474
_refine_diff_density_min         -2.471
_refine_ls_extinction_method     none
_refine_ls_goodness_of_fit_ref   1.016
_refine_ls_hydrogen_treatment    constr
_refine_ls_matrix_type           full
_refine_ls_number_parameters     142
_refine_ls_number_reflns         3869
_refine_ls_number_restraints     0
_refine_ls_restrained_S_all      1.016
_refine_ls_R_factor_all          0.0604
_refine_ls_R_factor_gt           0.0437
_refine_ls_shift/su_max          0.001
_refine_ls_shift/su_mean         0.000
_refine_ls_structure_factor_coef Fsqd
_refine_ls_weighting_details
'w=1/[\s^2^(Fo^2^)+(0.0330P)^2^] where P=(Fo^2^+2Fc^2^)/3'
_refine_ls_weighting_scheme      calc
_refine_ls_wR_factor_gt          0.0855
_refine_ls_wR_factor_ref         0.0934
_reflns_number_gt                3069
_reflns_number_total             3869
_reflns_threshold_expression     'I > 2\s(I)'
_cod_depositor_comments
;

2017-08-03
Z value and formula fixed to values more according to usual
chemical conventions.                 miguel
;
_cod_original_formula_sum            'C36 H52 I12 N8 O4 Pb4'
_cod_original_formula_weight         3012.41
_cod_original_formula_units_Z            1
_cod_data_source_file            ps5046sup1.cif
_cod_data_source_block           shelx
_cod_database_code               2107270
_shelx_space_group_comment
;
The symmetry employed for this shelxl refinement is uniquely defined
by the following loop, which should always be used as a source of
symmetry information in preference to the above space-group names.
They are only intended as comments.
;
_shelx_hkl_file
;
  -2   0   0  235.40    5.46
   2   0   0  207.04    5.65
   3   0   0  148.81    5.05
  -3   0   0  159.91    4.86
   4   0   0   97.84    3.86
  -4   0   0   94.11    3.91
  -4   0   0  104.32    4.08
   4   0   0   90.71    4.22
  -5   0   0 1047.69   21.42
   5   0   0 1019.82   21.15
   5   0   0 1003.75   22.27
   6   0   0   63.73    4.22
  -6   0   0   62.33    3.71
   6   0   0   60.96    3.55
   7   0   0  124.77    5.64
  -7   0   0  121.80    5.80
   7   0   0  138.57    6.79
   8   0   0  281.92   10.84
   9   0   0    0.41    0.90
  10   0   0  141.99    8.14
  11   0   0  104.33    7.16
  12   0   0   99.98    7.31
  13   0   0   74.45    6.69
  14   0   0    9.01    2.74
  15   0   0   28.61    4.54
   2  -1   0   54.07    2.31
  -2   1   0   71.93    2.20
   2   1   0   75.76    2.37
  -3   1   0    7.72    0.83
   3   1   0    8.95    0.95
   3  -1   0    7.60    0.85
   3  -1   0    7.11    0.96
   3   1   0    6.90    1.09
   4   1   0  322.18    8.57
   4  -1   0  281.06    8.23
   4   1   0  334.34    8.33
   4   1   0  277.51    8.99
  -4   1   0  325.70    8.12
   4  -1   0  295.20    7.67
  -4  -1   0  301.41    7.98
   5  -1   0  147.72    5.99
   5   1   0  156.49    6.51
   5  -1   0  127.63    4.97
  -5  -1   0  151.30    5.52
   5   1   0  155.14    5.78
  -5   1   0  145.01    5.87
  -5   1   0  160.39    5.56
   6   1   0  751.55   17.95
  -6  -1   0  645.37   16.15
   6  -1   0  670.48   15.79
   6  -1   0  727.58   17.28
  -6   1   0  688.10   16.78
   6   1   0  663.05   16.40
  -6   1   0  749.31   16.48
   7  -1   0   35.35    2.80
   7   1   0   44.03    3.75
   7  -1   0   40.24    3.60
   8   1   0    3.17    1.46
   8  -1   0    1.82    0.96
   9   1   0  137.15    7.72
   9  -1   0  133.49    7.43
  10   1   0   89.67    6.60
  10  -1   0   88.21    6.21
  11  -1   0   83.35    6.33
  11   1   0   82.26    6.56
  12  -1   0    2.73    1.63
  12   1   0    4.86    1.63
  13   1   0   20.53    3.54
  13  -1   0   21.25    3.63
  14  -1   0   63.98    6.47
  14   1   0   67.97    6.78
  15  -1   0   15.35    3.37
  -2   2   0   34.62    1.43
   2  -2   0   31.71    1.55
   3  -2   0   42.66    1.97
  -3   2   0   41.41    1.87
   3   2   0   44.32    2.09
   3  -2   0   36.88    2.11
   4   2   0   11.44    1.68
   4  -2   0   10.29    1.25
   4   2   0   17.71    1.49
   4  -2   0   16.98    1.40
  -4   2   0   17.60    1.40
   5   2   0  366.88   10.63
   5   2   0  375.19    9.71
   5   2   0  403.33   11.47
   5  -2   0  342.52   10.16
   5  -2   0  360.42    9.34
  -5   2   0  371.41    9.51
  -6   2   0   48.87    3.21
   6  -2   0   49.90    3.52
   6   2   0   46.54    3.39
   6  -2   0   43.17    2.86
  -6   2   0   48.80    3.57
   6   2   0   53.20    3.97
   7  -2   0   67.35    3.93
   7  -2   0   88.29    5.07
  -7   2   0   83.19    4.41
   7   2   0   83.91    5.43
   8  -2   0   31.93    3.23
   8   2   0   32.27    3.55
  -8   2   0   31.97    2.91
   9   2   0   20.35    2.94
   9  -2   0   19.44    2.58
  10  -2   0   61.54    5.06
  10   2   0   67.18    5.77
  11  -2   0   97.80    6.85
  11   2   0  105.40    7.53
  12  -2   0   30.05    3.91
  12   2   0   26.60    3.88
  13  -2   0   11.58    2.66
  13   2   0   12.70    2.83
  14   2   0   22.31    4.01
  14  -2   0   18.08    3.36
  15  -2   0   16.85    3.60
   0  -3   0   -0.38    0.25
   1  -3   0  251.95    5.85
  -2   3   0   54.42    2.06
   2  -3   0   55.25    1.89
  -2   3   0   56.98    2.11
   2  -3   0   53.14    2.15
   3  -3   0    4.51    0.74
  -3   3   0    6.74    0.80
   3  -3   0    5.43    0.80
   4  -3   0  156.97    5.44
   4  -3   0  180.69    5.37
  -4   3   0  181.61    5.13
   5  -3   0   55.44    2.97
   5  -3   0   42.85    2.92
   5   3   0   55.94    4.05
  -5   3   0   53.34    2.78
   5   3   0   52.41    2.92
   5   3   0   53.52    3.52
   6   3   0   44.02    2.93
   6  -3   0   46.75    2.98
   6  -3   0   43.26    3.13
   6   3   0   54.11    4.07
  -6   3   0   44.43    2.86
  -7   3   0   46.80    3.32
   7   3   0   44.52    3.28
   7  -3   0   47.82    3.65
   7   3   0   52.55    4.37
   7  -3   0   44.54    3.12
   8   3   0   23.56    3.09
   8  -3   0   18.72    2.42
  -8   3   0   20.28    2.33
  -9   3   0   37.28    3.30
   9  -3   0   35.58    3.61
   9   3   0   39.37    4.19
  10  -3   0   79.81    5.70
  10   3   0   76.24    6.34
  11   3   0   21.72    3.67
  11  -3   0   18.58    2.94
  12  -3   0   26.65    3.75
  12   3   0   19.13    3.43
  13   3   0   12.91    3.04
  13  -3   0   11.82    2.54
  14  -3   0    4.53    1.81
  14   3   0    1.55    1.51
  15  -3   0   34.33    4.76
   0  -4   0   15.48    1.27
   1  -4   0  157.10    4.57
  -2   4   0  158.91    4.46
   2  -4   0  150.20    3.60
  -2   4   0  165.91    3.94
   3  -4   0   16.81    1.21
   3  -4   0   16.83    1.33
  -3   4   0   15.51    1.32
  -3   4   0   16.50    1.19
  -4   4   0    8.84    1.02
   4  -4   0    7.87    1.10
   4  -4   0    8.73    1.20
   5   4   0   38.24    3.39
   5   4   0   34.72    2.43
   5  -4   0   38.46    2.54
  -5   4   0   38.52    2.29
   5  -4   0   33.70    2.43
   6  -4   0   33.94    2.69
   6  -4   0   43.84    2.91
   6   4   0   39.87    2.74
   6   4   0   41.08    3.74
  -6   4   0   45.39    2.76
   7   4   0   11.50    1.71
  -7   4   0    9.91    1.55
   7  -4   0   10.58    1.54
   7   4   0   17.27    2.79
   7  -4   0   10.65    1.93
  -8   4   0    6.86    1.45
   8   4   0    2.84    0.81
   8  -4   0    3.87    1.10
   8   4   0    3.87    1.64
  -9   4   0   91.42    5.27
   9  -4   0   88.32    5.68
   9   4   0  101.69    6.80
  10  -4   0   69.86    5.19
  10   4   0   59.91    5.67
  11  -4   0   15.24    2.72
  11   4   0   13.90    3.06
  12  -4   0    4.63    1.70
  12   4   0    6.65    2.56
  13  -4   0   13.24    2.63
  13   4   0    9.08    2.36
  14   4   0   56.90    6.49
  14  -4   0   51.79    5.61
  15  -4   0    8.35    2.43
   0  -5   0    0.18    0.45
   1  -5   0  141.69    4.59
  -2   5   0   29.09    1.25
  -2   5   0   30.74    1.86
  -2   5   0   31.56    2.03
  -3   5   0  348.76    8.23
  -3   5   0  348.95    8.00
   3  -5   0  332.24    7.42
   3  -5   0  338.25    8.46
   4  -5   0  408.16    9.95
  -4   5   0  404.47    9.49
   5  -5   0   16.27    1.62
   5  -5   0   17.87    1.71
   5   5   0   17.25    2.45
  -5   5   0   16.46    1.50
   6  -5   0   25.81    2.35
  -6   5   0   28.16    2.19
   6   5   0   24.59    3.16
   6   5   0   26.49    2.30
   6  -5   0   29.56    2.41
   7   5   0   33.09    3.61
   7  -5   0   25.09    2.49
  -7   5   0   32.52    2.56
   7   5   0   33.00    2.71
   7  -5   0   32.86    2.78
   8  -5   0  185.36    7.69
  -8   5   0  184.09    7.23
   8  -5   0  179.03    7.45
   8   5   0  187.13    7.45
   8   5   0  209.34    9.86
  -9   5   0   68.41    4.63
   9  -5   0   69.73    4.88
   9   5   0   77.07    6.13
  10   5   0   18.63    3.37
 -10   5   0   15.69    2.29
  10  -5   0   17.84    2.62
  11   5   0   38.78    4.85
  11  -5   0   34.17    3.76
  12   5   0    0.64    1.39
  12  -5   0    0.57    0.88
  13   5   0   21.45    3.87
  13  -5   0   21.08    3.35
  14   5   0    2.92    1.65
  14  -5   0    1.89    1.15
  15  -5   0   39.69    4.92
   0  -6   0  115.09    4.38
   1  -6   0    9.22    1.11
  -2   6   0  691.61   14.84
  -2   6   0  684.82   14.31
  -2   6   0  645.47   12.05
  -3   6   0  443.58   10.40
  -3   6   0  454.88   11.33
  -3   6   0  464.35    9.60
   3  -6   0  424.96    8.88
  -4   6   0   37.42    2.30
   4  -6   0   36.33    1.99
   4  -6   0   35.97    2.39
  -5   6   0  187.30    5.94
   5  -6   0  184.80    6.44
   5   6   0  172.23    7.91
   5  -6   0  185.98    5.89
   6   6   0   14.66    2.42
   6  -6   0   12.57    1.60
   6  -6   0   10.70    1.45
  -6   6   0   11.58    1.42
  -7   6   0  135.54    5.47
   7  -6   0  133.35    6.02
   7  -6   0  136.08    5.85
   7   6   0  133.16    5.81
   7   6   0  146.69    7.99
   8  -6   0   18.96    2.31
  -8   6   0   20.20    2.14
   8   6   0   17.18    2.08
   8  -6   0   17.96    2.24
   8   6   0   21.98    3.09
  -9   6   0  123.74    6.20
   9  -6   0  126.38    6.47
   9   6   0  121.58    6.23
   9   6   0  130.64    8.24
  10  -6   0  148.06    7.58
 -10   6   0  150.00    7.32
  10   6   0  145.23    9.36
 -11   6   0   19.83    2.69
  11   6   0   18.38    3.55
  11  -6   0   16.01    2.61
  12  -6   0   18.14    2.77
  12   6   0   21.80    3.91
  13   6   0   -1.12    1.38
  13  -6   0    1.96    1.50
  14   6   0   50.67    6.35
  14  -6   0   46.17    4.97
   0  -7   0    6.50    1.24
   1  -7   0  409.58   10.49
  -1   7   0  409.18   10.71
  -2   7   0  224.13    6.74
  -2   7   0  223.29    7.02
  -2   7   0  191.05    4.22
  -3   7   0  517.79   12.14
  -3   7   0  512.86   10.49
  -3   7   0  502.75   12.90
  -4   7   0  457.58   11.08
   4  -7   0  438.65    9.67
  -4   7   0  456.91   12.33
  -5   7   0   16.47    1.63
   5  -7   0   17.37    1.89
   5   7   0   14.95    2.44
   5  -7   0   16.18    1.54
   6  -7   0  143.12    5.45
   6  -7   0  147.88    6.07
   6   7   0  159.80    8.01
  -6   7   0  142.39    5.46
   7  -7   0   41.99    3.00
   7  -7   0   33.43    2.90
  -7   7   0   37.46    2.73
   7   7   0   41.24    4.32
   8   7   0  304.70   12.47
  -8   7   0  263.44    8.77
   8  -7   0  264.75    9.18
   8   7   0  254.92    9.08
   9   7   0   85.01    5.09
   9   7   0  106.45    7.44
   9  -7   0   91.29    5.36
  -9   7   0   95.21    5.28
  10   7   0    5.52    2.05
 -10   7   0    2.79    1.12
  10  -7   0    1.65    0.95
  10   7   0    1.59    1.09
  11   7   0   85.32    7.59
  11  -7   0   91.66    6.01
 -11   7   0   76.55    5.38
  12   7   0    6.65    2.36
  12  -7   0    8.14    2.07
  13  -7   0   54.59    5.17
  13   7   0   63.33    6.92
   0  -8   0  253.79    8.00
   1  -8   0  131.94    5.36
  -2   8   0  510.98   13.28
   2  -8   0  536.84   13.20
  -3   8   0  256.53    7.73
  -3   8   0  250.38    8.38
  -3   8   0  235.76    5.64
  -4   8   0  174.90    6.06
   4  -8   0  161.61    4.43
  -4   8   0  163.05    6.76
   5   8   0  116.58    6.68
  -5   8   0  118.67    4.88
   5  -8   0  120.78    4.21
   6   8   0   27.88    3.45
   6  -8   0   22.27    2.32
  -6   8   0   27.28    2.27
   6  -8   0   26.43    2.10
  -7   8   0  235.16    7.85
   7   8   0  260.68   11.23
   7  -8   0  253.74    8.15
   7  -8   0  222.80    8.50
   8   8   0   31.57    2.95
  -8   8   0   31.65    2.74
   8  -8   0   36.02    3.02
   8   8   0   32.62    4.14
  -9   8   0   63.67    4.19
   9   8   0   57.23    4.14
   9  -8   0   62.81    4.39
   9   8   0   68.95    6.05
  10   8   0   39.26    4.83
  10   8   0   28.04    3.12
 -10   8   0   29.33    3.11
  10  -8   0   29.53    3.15
  11   8   0    7.81    2.55
  11  -8   0    6.84    1.83
 -11   8   0    7.15    1.67
  12  -8   0   72.87    5.61
  12   8   0   84.26    8.00
  13   8   0    0.91    1.65
   0  -9   0    1.30    0.73
  -1  -9   0   69.70    4.04
   1  -9   0   67.57    3.89
   2  -9   0  212.11    7.45
  -2   9   0  192.71    7.43
  -3   9   0  165.12    6.32
  -4   9   0    2.68    0.84
  -5   9   0   31.51    2.52
   5   9   0   31.60    3.56
   5  -9   0   27.70    1.71
  -6   9   0  129.85    5.45
   6  -9   0  124.04    4.74
   6   9   0  122.32    7.31
  -7   9   0   60.94    3.73
   7  -9   0   67.62    3.75
   7   9   0   70.05    5.79
   8  -9   0  126.67    5.81
  -8   9   0  110.43    5.43
   8   9   0  119.93    8.04
  -9   9   0    2.41    1.06
   9   9   0    3.40    1.39
   9   9   0    1.50    1.13
   9  -9   0    1.99    0.98
  10   9   0   13.68    2.94
  10   9   0    8.41    1.55
  10  -9   0    9.88    1.89
 -10   9   0    7.88    1.49
  11  -9   0   26.91    3.19
  11   9   0   36.75    5.14
  12   9   0    2.02    1.70
  13   9   0   78.67    7.99
   0 -10   0   21.26    2.22
   1 -10   0  244.70    8.42
  -1 -10   0  230.50    8.44
   2 -10   0   10.98    1.64
  -3  10   0    1.19    0.66
   4  10   0  133.98    7.07
  -4  10   0  140.18    5.98
  -5  10   0    1.47    0.57
   5  10   0    5.30    1.90
   6  10   0    8.78    2.17
  -6  10   0    8.93    1.48
   6 -10   0    6.93    1.00
   7 -10   0  151.40    5.71
   7  10   0  159.49    9.01
  -7  10   0  151.48    6.40
   8  10   0    2.60    1.68
  -8  10   0    3.46    0.98
   8 -10   0    4.93    1.09
   9  10   0   21.94    2.63
   9  10   0   24.15    3.88
   9 -10   0   29.66    2.94
  -9  10   0   22.78    2.50
  10 -10   0   15.94    2.30
  10  10   0   17.65    3.62
 -10  10   0   14.15    2.17
  10  10   0   11.99    1.98
  11  10   0   17.67    3.56
  12  10   0  142.83   10.74
  13  10   0    3.03    2.24
   0 -11   0    0.30    0.45
  -1 -11   0   21.53    2.47
   1 -11   0   21.82    2.38
   2 -11   0  120.24    6.08
  -2 -11   0  122.71    6.13
  -3  11   0   54.29    3.85
  -4  11   0   55.49    3.82
   4  11   0   57.11    4.64
   5  11   0   86.98    6.13
  -5  11   0   96.71    5.10
   6  11   0  111.69    7.25
  -6  11   0  112.19    5.50
   7  11   0   35.31    4.33
   7 -11   0   36.02    2.39
  -7  11   0   40.05    3.19
   8  11   0   50.47    5.33
   8 -11   0   49.20    3.20
  -8  11   0   45.43    3.52
   9  11   0   37.20    4.85
   9  11   0   23.22    2.88
  -9  11   0   29.16    2.93
  10  11   0   13.14    2.97
  11  11   0   23.35    4.15
  12  11   0    4.90    2.54
   0 -12   0  111.48    5.89
   1 -12   0  164.30    7.31
  -1 -12   0  168.17    7.44
   2 -12   0   45.72    3.81
  -2 -12   0   43.60    3.77
  -3  12   0   22.05    2.64
   3  12   0   19.04    2.58
  -4  12   0  127.40    6.33
   4  12   0  124.48    7.14
   5  12   0   23.34    3.22
  -5  12   0   24.10    2.57
  -6  12   0   12.41    1.89
   6  12   0   15.26    2.80
   7  12   0  150.85    9.04
  -7  12   0  151.99    6.87
  -8  12   0   14.90    2.15
   8  12   0   12.66    3.07
  -9  12   0   21.52    2.56
   9  12   0   21.30    3.88
  10  12   0    5.80    2.40
  11  12   0    3.66    2.18
  12  12   0  100.47    9.24
   0 -13   0   -1.09    0.87
   0  13   0    0.11    0.56
   1  13   0  126.84    6.09
  -1 -13   0  175.96    7.88
  -1  13   0  173.46    4.96
   1 -13   0  174.80    7.77
  -2 -13   0  168.85    7.92
   2  13   0  146.66    6.97
   2 -13   0  165.81    7.70
  -3  13   0  190.64    8.23
   3  13   0  178.83    8.30
  -4  13   0   35.91    3.46
   4  13   0   34.29    3.82
  -5  13   0    3.44    1.21
   5  13   0    4.21    1.56
   6  13   0  150.64    8.89
  -6  13   0  142.75    6.87
   7  13   0   71.24    6.28
  -7  13   0   70.51    4.69
   8  13   0   89.24    7.40
  -8  13   0   87.04    5.30
   9  13   0   14.30    3.43
  10  13   0    3.56    2.25
  11  13   0   59.77    6.98
  12  13   0    2.61    2.12
   0 -14   0  158.05    7.74
   0  14   0  168.15    5.90
  -1 -14   0   30.99    3.26
  -1  14   0   31.20    1.83
   1  14   0   29.54    2.70
   1 -14   0   29.80    3.31
   2  14   0  208.43    8.68
   2 -14   0  270.69   10.39
  -2 -14   0  254.31   10.25
   3  14   0  184.33    8.46
  -3 -14   0  188.73    8.90
  -3  14   0  193.12    8.60
   4  14   0   43.93    4.32
  -4  14   0   49.40    4.12
   5  14   0  166.15    8.98
  -5  14   0  173.77    8.03
   6  14   0   22.16    3.56
  -6  14   0   21.40    2.66
   7  14   0  161.83    9.72
  -7  14   0  146.36    7.20
   8  14   0   27.03    4.15
   9  14   0   39.72    5.31
  10  14   0   67.05    7.21
  11  14   0    9.10    3.29
   0  15   0    0.98    0.63
   0 -15   0   -0.54    0.74
   1  15   0  125.08    5.87
  -1  15   0  122.17    3.88
   1 -15   0  124.06    7.01
  -1 -15   0  134.56    7.30
   2  15   0   23.87    2.73
  -2 -15   0   29.46    3.46
   2 -15   0   29.50    3.45
  -3 -15   0  127.68    7.41
   3  15   0  110.55    6.52
  -3  15   0  131.46    7.25
  -4  15   0  208.94    9.18
  -4 -15   0  183.33    9.33
   4  15   0  178.48    9.10
   5  15   0    2.67    1.51
  -5  15   0    1.99    0.93
   6  15   0   56.51    5.53
  -6  15   0   48.64    4.24
   7  15   0    0.02    1.20
  -7  15   0   -0.04    0.83
   8  15   0  114.24    8.70
   9  15   0   47.52    6.02
  10  15   0    4.52    2.21
  11  15   0   35.05    5.51
   0 -16   0    9.74    1.99
   0  16   0   10.69    1.41
   1 -16   0   10.80    2.15
   1  16   0    9.57    1.67
  -1 -16   0    8.28    1.76
   2  16   0  132.97    6.77
  -2 -16   0  135.18    7.69
   2 -16   0  144.64    7.91
  -3 -16   0   52.19    4.88
   3  16   0   44.12    4.13
  -3  16   0   55.12    4.80
   4  16   0    9.51    2.26
  -4  16   0    9.30    1.89
  -4 -16   0    7.33    2.13
  -5  16   0   33.08    3.56
   5  16   0   32.22    3.92
   6  16   0   -0.13    1.24
  -6  16   0    1.41    0.84
   7  16   0   20.90    3.68
   8  16   0    2.32    1.77
   9  16   0   46.13    6.08
  10  16   0   48.75    6.19
  11  16   0    0.52    1.71
   0 -17   0    0.18    1.22
  -1 -17   0   18.07    2.90
   1 -17   0   18.20    2.81
  -2  17   0    5.09    1.72
  -2 -17   0    7.39    2.00
   2 -17   0    9.64    2.14
   2  17   0    9.26    1.97
  -3 -17   0   24.07    3.35
  -3  17   0   27.34    3.36
   3  17   0   24.79    3.11
  -4 -17   0   39.08    4.57
   4  17   0   35.96    4.10
  -4  17   0   44.27    4.39
   5  17   0    1.05    1.14
  -5 -17   0   -0.28    1.18
  -5  17   0   -0.20    0.94
  -6  17   0    3.49    1.42
   6  17   0    6.72    2.09
   7  17   0   32.37    4.54
   8  17   0   29.54    4.69
   9  17   0   12.96    3.25
  10  17   0    8.83    2.75
   0 -18   0    8.30    1.87
   1 -18   0   20.42    3.22
  -1 -18   0   23.16    3.30
  -2  18   0    5.96    1.91
  -2 -18   0    5.34    1.86
  -3  18   0    9.84    2.16
  -3 -18   0    4.33    1.54
  -4  18   0    1.67    1.30
  -4 -18   0   -0.41    0.79
   4  18   0   -0.41    0.95
  -5 -18   0   24.49    3.81
   5  18   0   31.27    4.10
  -5  18   0   27.85    3.52
  -6 -18   0   19.35    3.32
   6  18   0   21.49    3.71
   7  18   0    8.89    2.69
   8  18   0    1.66    1.29
   9  18   0   17.26    3.82
  10  18   0   15.00    3.41
   0 -19   0    1.31    1.13
  -1 -19   0   69.82    5.94
   1 -19   0   71.74    6.02
  -2 -19   0    1.28    1.10
  -2  19   0    0.43    1.49
  -3 -19   0    6.67    1.98
  -3  19   0    4.96    1.69
  -4 -19   0   46.51    5.18
  -4  19   0   50.68    4.89
  -5 -19   0    8.74    2.46
  -6 -19   0   35.56    4.65
  -7 -19   0    1.35    1.17
   8  19   0    5.34    2.19
   9  19   0   13.21    3.44
  10  19   0   14.93    3.62
   0 -20   0  197.03   10.58
  -1 -20   0    5.60    1.87
   1 -20   0    4.31    1.60
  -2  20   0   24.53    3.73
  -2 -20   0   22.28    3.46
  -3  20   0   22.15    3.45
  -3 -20   0   19.45    3.39
  -4 -20   0    5.27    1.73
  -4  20   0    5.56    1.78
  -5 -20   0   97.69    7.73
  -6 -20   0    4.01    2.16
   0 -21   0    0.92    1.24
   1 -21   0  135.66    8.89
  -1 -21   0  133.26    8.86
  -2  21   0   13.51    2.88
  -2 -21   0   13.59    3.00
  -3  21   0    1.90    1.24
  -3 -21   0    4.21    1.85
  -4 -21   0   60.77    6.08
   0 -22   0  159.61   10.00
  -1 -22   0   10.12    2.76
  -1  22   0   11.28    2.93
  -2  22   0    7.90    2.21
  -2 -22   0    7.96    2.15
  -1  23   0   22.54    3.99
   0  24   0   15.63    3.69
  15   0  -1   -0.38    1.46
  14   0  -1   -1.95    1.36
  13   0  -1    1.14    1.51
  12   0  -1    2.36    1.47
  11   0  -1    1.41    1.28
  10   0  -1   -0.15    0.85
   9   0  -1   -0.97    1.02
   8   0  -1   -1.14    1.10
  -8   0   1    1.07    0.73
  -8   0   1    0.52    0.55
  -7   0   1   -0.99    0.62
  -7   0   1    0.32    0.41
  -6   0   1    0.31    0.90
   6   0  -1    0.54    0.65
  -6   0   1    0.26    0.47
   5   0  -1    0.31    0.44
  -5   0   1    0.36    0.62
  -4   0   1    0.37    0.46
  -3   0   1   -0.35    0.34
  -2   0   1    0.28    0.31
   2   0   1    0.51    0.39
   2   0   1   -0.15    0.41
   3   0   1    0.09    0.42
   3   0   1    0.33    0.48
   4   0   1    0.38    0.47
   4   0   1   -0.01    0.43
   4   0   1    0.26    0.41
   5   0   1    0.42    0.75
  -5   0  -1    0.45    0.50
   5   0   1    0.49    0.57
   6   0   1    0.33    0.55
   6   0   1   -1.03    1.02
  -6   0  -1   -0.08    0.48
   7   0   1    0.63    0.62
   7   0   1    0.25    0.72
   8   0   1   -0.13    0.88
   9   0   1    0.37    1.16
  10   0   1    2.61    1.64
  11   0   1    1.91    1.45
  12   0   1    0.06    1.12
  13   0   1    2.23    1.67
  14   0   1   -0.32    1.02
  15   1  -1    5.36    2.35
  15  -1  -1   -0.18    1.68
  14   1  -1   -0.97    1.52
  14  -1  -1    0.92    1.05
  13  -1  -1    0.90    1.45
  13   1  -1    1.61    1.66
  12   1  -1   19.19    3.58
  12  -1  -1   15.65    2.82
  11   1  -1   21.53    3.41
  11  -1  -1   20.14    3.28
  10  -1  -1    2.35    1.73
  10   1  -1    0.45    1.02
   9  -1  -1    2.28    1.15
   9   1  -1    4.89    1.71
  -9   1   1    2.67    0.92
   8   1  -1   57.48    4.83
  -8   1   1   44.52    3.47
  -8  -1   1   47.68    3.34
   8  -1  -1   51.01    4.25
  -8   1   1   54.56    4.02
  -7  -1   1    1.61    0.66
  -7   1   1    0.41    0.48
  -7  -1   1    1.05    0.70
  -7   1   1    0.10    0.50
  -6  -1   1   10.44    1.31
   6  -1  -1    9.35    1.45
   6   1  -1    9.20    1.50
  -6  -1   1    9.79    1.56
  -6   1   1   11.00    1.58
   5  -1  -1    4.26    0.93
  -5  -1   1    4.02    0.91
  -5  -1   1    4.53    0.68
  -5   1   1    4.97    0.97
  -4  -1   1   70.75    2.67
  -4  -1   1   76.58    3.78
  -4   1   1   75.46    3.35
  -3  -1   1  434.34   10.16
  -3  -1   1  420.78    8.42
  -3   1   1  431.45    9.64
  -2   1   1    3.27    0.61
  -2  -1   1    2.85    0.55
   1   1   1   11.63    0.94
   1  -1   1   12.24    1.06
   1  -1   1   10.98    0.88
   2   1   1  140.79    4.47
   2  -1   1  145.29    4.80
   2  -1   1  137.52    4.28
   3  -1   1   14.67    1.09
   3   1   1   20.24    1.72
   3  -1   1   15.59    1.43
   3   1   1   19.02    1.76
   4   1   1   33.83    2.60
   4  -1   1   42.66    2.77
   4   1   1   43.04    2.77
   4  -1   1   38.04    2.09
   5   1   1   82.04    3.93
  -5   1  -1   82.13    4.77
  -5   1  -1   79.51    4.44
   5   1   1   85.77    4.44
   5  -1   1   75.48    3.42
   5   1   1   62.66    3.99
   5  -1   1   82.11    4.28
   6   1   1    1.87    0.86
   6   1   1    1.14    0.63
   6  -1   1    1.46    0.79
   6  -1   1    2.27    0.70
   6   1   1   -0.70    0.75
   7   1   1    9.88    1.80
   7   1   1   11.54    1.68
   7  -1   1    8.55    1.63
   7  -1   1    9.92    1.42
   8  -1   1   23.30    2.94
   8  -1   1   21.50    2.23
   8   1   1   22.50    2.84
   9  -1   1   27.10    3.37
   9   1   1   20.21    2.79
  10  -1   1   34.76    3.95
  10   1   1   27.69    3.70
  11  -1   1    4.25    1.65
  11   1   1    4.77    2.03
  12   1   1    9.78    2.51
  12  -1   1   10.44    2.49
  13   1   1    0.52    1.39
  13  -1   1   -0.18    0.76
  14   1   1    2.70    1.73
  14  -1   1    1.46    1.50
  15   2  -1   -1.30    1.70
  15  -2  -1    2.24    1.78
  14   2  -1    2.32    1.52
  14  -2  -1    1.52    1.06
  13   2  -1    0.27    1.52
  13  -2  -1   -0.94    1.13
  12  -2  -1    6.44    2.03
  12   2  -1    5.96    2.33
  11  -2  -1   59.11    5.29
  11   2  -1   58.99    5.71
  10   2  -1   50.52    5.19
 -10   2   1   48.91    4.23
  10  -2  -1   50.72    4.64
   9   2  -1   90.14    6.73
   9  -2  -1   93.36    5.91
  -9   2   1   79.40    5.21
  -8   2   1    2.75    0.89
   8  -2  -1    4.13    1.47
   7  -2  -1    8.92    1.78
  -7   2   1    7.95    1.53
  -6   2   1  126.40    5.27
   6  -2  -1  116.44    5.30
  -5   2   1   54.44    3.05
   5  -2  -1   54.97    3.22
   4  -2  -1   36.66    2.44
  -4  -2   1   36.30    2.64
  -4   2   1   41.56    2.41
  -3  -2   1   96.21    3.96
  -3   2   1  102.15    3.68
  -2   2   1  161.14    4.50
  -2  -2   1  146.77    4.68
  -1   2   1    0.50    0.35
  -1  -2   1    0.38    0.29
   0  -2  -1   11.29    0.86
   1   2   1    2.26    0.63
   1  -2   1    0.55    0.28
   2   2   1  273.00    6.97
   2  -2   1  242.84    6.23
   3  -2   1  398.00    7.86
   3   2   1  405.91   10.16
   3  -2   1  377.80    9.41
   4   2   1   49.06    3.00
  -4   2  -1   45.28    3.04
   4   2   1   40.90    2.95
   4  -2   1   46.22    2.08
   4  -2   1   48.27    2.80
   5  -2   1   17.10    1.40
   5   2   1   17.58    1.88
   5   2   1   10.34    1.61
   5  -2   1   17.37    1.80
  -5   2  -1   18.32    2.36
   6   2   1   37.46    3.01
   6   2   1   26.17    2.80
   6   2   1   31.22    2.64
   6  -2   1   30.90    2.86
   6  -2   1   31.23    2.20
   7   2   1   28.69    3.06
   7   2   1   31.59    3.03
   7  -2   1   22.67    2.51
   7  -2   1   27.95    2.29
   8  -2   1   18.96    2.06
   8   2   1   19.77    2.78
   8  -2   1   22.51    2.73
   9   2   1    1.77    1.10
   9  -2   1    1.75    0.94
  10  -2   1   12.75    2.46
  10   2   1    6.44    1.71
  11  -2   1   73.88    5.91
  11   2   1   78.17    6.45
  12   2   1    5.50    2.04
  12  -2   1    1.44    1.03
  13   2   1    2.66    1.36
  13  -2   1    3.92    1.77
  14  -2   1    3.79    1.65
  14   2   1    4.02    1.94
  15  -3  -1    0.63    1.19
  14  -3  -1   22.81    3.74
  14   3  -1   26.23    4.64
  13  -3  -1   -1.86    1.60
  13   3  -1   -2.63    1.36
  12   3  -1   21.84    3.77
  12  -3  -1   23.18    3.56
 -11   3   1   20.45    2.90
  11   3  -1   24.59    3.90
  11  -3  -1   26.81    3.51
  10  -3  -1    2.50    1.17
 -10   3   1    2.55    1.12
  10   3  -1    1.98    1.45
   9  -3  -1    4.65    1.59
  -9   3   1    3.17    1.11
   9   3  -1    5.43    1.75
   8  -3  -1   71.82    4.77
  -8   3   1   69.79    4.41
   7  -3  -1    1.65    0.99
  -7   3   1    0.55    0.48
   6  -3  -1    8.53    1.41
  -6   3   1    9.74    1.42
   6  -3  -1   11.18    1.72
   5  -3  -1   74.21    3.87
  -5   3   1   71.99    3.53
  -4   3   1   15.44    1.46
   4  -3  -1   18.22    1.71
   4   3  -1   16.77    1.07
  -3   3   1  574.66   12.42
  -2   3   1   87.57    3.30
  -1   3   1   19.91    1.41
   0  -3  -1    6.69    0.82
   0   3   1    6.17    0.58
  -1  -3  -1    2.42    0.57
   1  -3   1    1.61    0.32
   1   3   1    1.07    0.46
   2  -3   1  208.06    5.38
  -2   3  -1  200.39    5.55
   2   3   1  219.97    6.19
  -3   3  -1  138.70    3.32
  -3   3  -1  122.81    4.52
   3   3   1  125.52    5.05
   3  -3   1  123.70    3.22
   3  -3   1  130.22    4.42
   4   3   1   13.95    1.85
   4  -3   1   13.37    1.51
  -4   3  -1   16.02    1.79
  -4   3  -1   15.98    1.21
   4  -3   1   16.22    1.15
   5   3   1   34.86    3.14
   5  -3   1   49.69    3.08
   5  -3   1   49.59    2.44
  -5   3  -1   52.32    3.55
   5   3   1   53.25    3.35
  -5   3  -1   51.31    2.61
   6   3   1   59.12    3.77
   6  -3   1   55.86    2.93
   6  -3   1   54.92    3.57
   6   3   1   50.37    3.98
   7   3   1    0.37    0.79
   7  -3   1   -0.54    0.48
   7   3   1   -0.11    0.83
   7  -3   1    0.01    0.65
   8  -3   1   80.99    5.33
   8   3   1  102.51    5.86
   8  -3   1   88.62    4.57
   8   3   1  111.25    6.66
   9  -3   1    7.87    1.61
   9   3   1   10.77    2.34
  10   3   1   74.57    5.97
  10  -3   1   68.23    5.31
  11  -3   1    8.06    1.96
  11   3   1    7.94    2.15
  12   3   1    1.17    1.41
  12  -3   1    1.36    1.15
  13   3   1    8.26    2.55
  13  -3   1    6.12    2.21
  14  -3   1    6.55    2.10
  14   3   1    8.00    2.55
  15  -3   1    2.29    1.67
  15  -4  -1    6.77    2.44
  14   4  -1    2.26    1.93
  14  -4  -1    2.36    1.54
  13   4  -1   14.98    3.38
  13  -4  -1   14.68    2.78
  12   4  -1    3.39    2.27
  12  -4  -1   -0.11    1.00
 -11   4   1   55.28    4.79
  11   4  -1   69.31    6.45
  11  -4  -1   59.31    5.11
 -10   4   1    2.38    1.12
  10   4  -1    2.43    1.58
  10  -4  -1    1.57    0.82
   9   4  -1   18.09    3.24
  -9   4   1   15.21    2.18
   9  -4  -1   19.88    2.62
  -8   4   1   62.21    4.13
   8  -4  -1   79.74    4.84
   7  -4  -1    3.68    1.06
  -7   4   1    3.81    0.93
  -6   4   1  129.28    5.30
   6  -4  -1  132.93    5.68
   6  -4  -1  136.39    5.88
   6   4  -1  122.70    4.54
   5  -4  -1   83.11    4.21
   5  -4  -1   69.70    3.76
  -5   4   1   78.73    3.75
   5   4  -1   75.59    2.92
   4  -4  -1   21.84    1.99
  -4   4   1   22.86    1.80
   3  -4  -1    1.63    0.65
  -3   4   1    1.11    0.58
  -2   4   1   48.33    2.52
  -1   4   1  123.55    4.28
   0  -4  -1  467.40    9.16
   0   4   1  446.75    8.94
   0  -4  -1  457.52   10.25
  -1  -4  -1   16.88    1.41
   1   4   1   15.85    1.31
   1  -4   1   15.55    1.16
  -1  -4  -1   17.02    1.51
   2   4   1  110.59    4.21
  -2   4  -1  104.83    3.59
  -2   4  -1  102.01    3.26
  -2   4  -1   96.61    2.62
   2  -4   1   98.41    3.35
  -3   4  -1   14.81    0.86
   3  -4   1   13.49    0.87
  -3   4  -1   13.29    1.36
   3  -4   1   11.69    1.20
   3   4   1   11.16    1.48
  -4   4  -1    0.75    0.21
   4   4   1    0.08    0.70
  -4   4  -1    2.49    0.83
   4  -4   1    1.40    0.32
   4  -4   1    1.09    0.55
   5  -4   1  238.09    6.29
   5   4   1  178.58    7.97
  -5   4  -1  251.80    8.46
   5  -4   1  231.79    7.47
  -5   4  -1  239.85    6.44
   6   4   1    3.19    1.17
  -6   4  -1    1.59    0.89
   6  -4   1    2.52    0.72
  -6   4  -1    2.63    0.75
   6  -4   1    2.05    0.95
   6   4   1    1.55    0.72
   7  -4   1   26.19    2.19
   7  -4   1   27.43    2.68
   7   4   1   25.42    3.11
   7   4   1   27.94    2.75
   8  -4   1    8.04    1.68
   8   4   1    5.39    1.10
   8  -4   1    6.95    1.22
   8   4   1    6.59    1.43
   9  -4   1   29.29    3.24
   9   4   1   32.08    3.82
   9  -4   1   22.66    2.37
   9   4   1   27.96    3.11
  10  -4   1   11.07    2.21
  10   4   1   10.51    2.36
  11   4   1   18.22    3.26
  11  -4   1   18.57    2.93
  12  -4   1    1.24    1.04
  12   4   1    0.94    0.95
  13   4   1   22.83    3.99
  13  -4   1   20.50    3.27
  14  -4   1   13.96    2.81
  14   4   1   15.72    3.40
  15  -4   1   -0.33    0.91
  15  -5  -1    4.41    1.95
  14   5  -1   41.92    6.06
  14  -5  -1   38.80    4.70
  13  -5  -1    1.13    1.32
  13   5  -1    2.46    2.30
  12   5  -1    0.27    0.97
 -12   5   1    1.07    1.01
  12  -5  -1   -1.08    0.88
  11  -5  -1    5.04    1.47
 -11   5   1    7.49    1.78
  11   5  -1    7.38    2.46
  10  -5  -1   13.09    2.28
  10   5  -1   11.19    2.68
 -10   5   1    9.58    1.97
  -9   5   1   83.34    5.14
   9  -5  -1   98.68    5.86
   9   5  -1  100.60    7.47
   8  -5  -1   12.46    1.92
  -8   5   1   12.97    1.84
   7   5  -1    8.21    1.15
   7  -5  -1    7.94    1.42
  -7   5   1    7.78    1.38
   6   5  -1   80.48    3.45
   6  -5  -1   84.64    4.32
  -6   5   1   86.22    4.22
   6  -5  -1   91.91    4.88
   5  -5  -1   70.65    4.01
   5  -5  -1   68.36    3.44
  -5   5   1   69.26    3.58
   4  -5  -1  100.07    4.53
  -4   5   1   90.39    3.98
   4  -5  -1   83.10    3.44
   3  -5  -1    0.16    0.37
  -3   5   1    0.01    0.45
  -2   5   1   45.77    2.59
  -1   5   1  554.52   12.57
   1  -5  -1  541.09   12.40
   0  -5  -1   49.88    2.68
   0  -5  -1   50.31    2.01
   0   5   1   49.59    1.87
   1  -5   1  170.56    5.09
  -1  -5  -1  169.90    5.39
  -1  -5  -1  186.07    5.81
   1   5   1  181.75    5.20
  -2   5  -1    2.44    0.47
  -2   5  -1    2.70    0.59
   2   5   1    1.73    0.58
  -2   5  -1    2.09    0.54
  -3   5  -1   62.48    2.88
  -3   5  -1   62.68    2.20
   3   5   1   63.25    3.68
  -3   5  -1   59.60    2.93
   3  -5   1   60.90    2.69
   4   5   1  114.50    6.09
   4  -5   1  167.28    4.64
  -4   5  -1  180.94    6.15
  -4   5  -1  181.32    4.51
   4  -5   1  171.45    5.60
   5  -5   1    2.42    0.58
   5  -5   1    1.72    0.76
  -5   5  -1    2.60    0.60
  -5   5  -1    1.85    0.79
   5   5   1    1.96    0.92
  -6   5  -1   44.20    2.62
  -6   5  -1   47.97    3.79
   6   5   1   47.33    4.10
   6  -5   1   49.95    2.75
   6  -5   1   47.66    3.24
  -7   5  -1    5.23    0.99
   7  -5   1    5.43    1.06
   7   5   1    5.00    1.23
   7   5   1    3.13    1.29
   7  -5   1    5.76    1.34
   8  -5   1   65.45    4.57
   8   5   1   71.71    5.47
   8  -5   1   65.72    3.87
   8   5   1   67.44    4.59
   9   5   1   49.22    4.25
   9   5   1   52.67    5.04
   9  -5   1   47.29    4.03
   9  -5   1   43.05    3.35
  10   5   1   -0.48    0.71
  10   5   1   -0.82    1.48
  10  -5   1    0.29    0.87
  11  -5   1    4.85    1.67
  11   5   1    4.12    1.70
  12   5   1    2.75    1.90
  12  -5   1    1.42    1.00
  13  -5   1   26.15    3.83
  13   5   1   30.69    4.66
  14  -5   1   21.14    3.45
  15  -5   1   -0.32    1.22
  14   6  -1    0.55    1.51
  14  -6  -1   -0.24    0.83
  13   6  -1    8.13    2.88
  13  -6  -1    7.85    2.32
  12   6  -1    5.52    2.53
 -12   6   1    5.85    1.78
  12  -6  -1    5.85    1.69
  11  -6  -1    7.82    1.92
  11   6  -1    4.29    1.71
 -11   6   1    4.94    1.38
  10   6  -1   76.57    6.86
  10  -6  -1   69.60    5.15
 -10   6   1   59.88    4.63
   9  -6  -1    5.18    1.35
  -9   6   1    5.61    1.30
   9   6  -1    6.55    1.93
   8  -6  -1   11.36    1.73
  -8   6   1    9.77    1.62
   8   6  -1    8.81    1.36
   7   6  -1    6.47    1.05
  -7   6   1    8.10    1.40
   7  -6  -1    9.58    1.48
   6   6  -1   18.47    1.59
  -6   6   1   17.35    1.89
   6  -6  -1   15.85    1.71
   6  -6  -1   17.61    2.17
   5  -6  -1  147.12    5.23
   5  -6  -1  171.70    6.73
  -5   6   1  166.43    6.04
  -4   6   1   -0.02    0.53
   4  -6  -1    0.13    0.45
   4  -6  -1    0.87    0.46
  -3   6   1   37.93    2.53
   3  -6  -1   34.03    1.40
   3  -6  -1   39.17    2.76
  -2   6   1    2.63    0.78
   1  -6  -1  113.88    4.54
   0   6   1  154.30    4.01
   0  -6  -1  150.61    5.39
  -1  -6  -1   19.75    1.83
   1  -6   1   19.86    1.64
   1   6   1   20.87    1.58
  -2   6  -1    7.45    0.99
   2   6   1    8.19    1.25
  -2   6  -1    6.89    0.92
  -3   6  -1   42.05    1.99
  -3   6  -1   40.44    2.50
  -3   6  -1   39.55    2.32
   3  -6   1   39.26    2.15
   3   6   1   42.28    3.07
   4  -6   1  136.31    4.75
   4   6   1   87.33    5.26
  -4   6  -1  141.75    5.23
  -4   6  -1  135.75    5.08
  -4   6  -1  137.73    4.01
   5  -6   1   83.92    3.41
   5  -6   1   92.90    4.19
   5   6   1   81.22    5.19
  -5   6  -1   95.88    3.41
  -5   6  -1   98.11    4.88
   6   6   1    5.86    1.59
   6  -6   1    3.78    0.76
   6  -6   1    4.44    0.82
  -6   6  -1    3.98    1.18
  -6   6  -1    4.14    0.77
   7  -6   1    3.84    0.82
  -7   6  -1    5.54    1.06
   7   6   1    5.42    1.34
   7  -6   1    5.38    1.17
   7   6   1    4.83    1.58
   8  -6   1   19.89    2.10
   8  -6   1   23.87    2.66
   8   6   1   21.14    2.57
  -8   6  -1   24.02    2.27
   8   6   1   23.68    3.33
   9   6   1    7.04    1.48
   9  -6   1    7.47    1.69
   9   6   1   12.58    2.66
  10   6   1   51.38    5.28
  10   6   1   45.91    4.30
  10  -6   1   42.80    4.06
  11   6   1    1.34    1.05
  11  -6   1   -0.40    0.70
  12   6   1   15.64    3.30
  12  -6   1   14.92    2.70
  13  -6   1    5.03    1.87
  13   6   1    6.79    2.46
  14  -6   1    0.16    0.93
  13   7  -1   25.05    4.43
  13  -7  -1   21.68    3.23
 -12   7   1   -0.04    1.25
  12   7  -1   -0.98    1.42
  12  -7  -1    1.92    1.42
  11  -7  -1    0.89    0.90
 -11   7   1    1.01    1.10
  11   7  -1   -2.09    1.44
  10  -7  -1   22.84    2.75
 -10   7   1   18.61    2.59
  10   7  -1   20.39    3.60
   9  -7  -1   13.28    2.12
   9   7  -1   14.57    3.27
  -9   7   1   12.66    1.95
   8   7  -1    2.96    0.67
  -8   7   1    4.37    1.10
   8  -7  -1    5.24    1.22
   7  -7  -1   42.85    3.11
  -7   7   1   42.45    3.19
   7   7  -1   44.44    2.73
  -6   7   1   12.52    1.71
   6  -7  -1   10.16    1.27
   5  -7  -1   -0.20    0.62
  -5   7   1    1.22    0.71
   5  -7  -1    0.10    0.39
   4  -7  -1  166.34    4.44
   4  -7  -1  179.89    6.94
  -4   7   1  179.59    6.39
  -3   7   1    0.24    0.56
  -2   7   1  220.54    7.23
   1  -7  -1   18.16    1.82
   0  -7   1    2.45    0.68
   0  -7  -1    3.23    0.74
   0   7   1    3.56    0.54
   1  -7   1   48.93    2.82
   1   7   1   49.91    2.61
  -1  -7  -1   48.75    3.07
  -2   7  -1   60.46    2.66
  -2   7  -1   58.65    3.13
   2   7   1   59.34    3.42
   2  -7   1   55.98    3.09
  -3   7  -1   53.29    3.00
  -3   7  -1   54.69    2.60
  -3   7  -1   49.84    2.62
   3   7   1   52.30    3.59
  -4   7  -1   61.47    3.45
   4  -7   1   59.14    2.93
   4   7   1   35.02    3.33
  -4   7  -1   63.76    2.73
  -4   7  -1   72.55    3.54
  -5   7  -1   12.40    1.21
  -5   7  -1   11.50    1.61
   5  -7   1    9.34    1.28
  -5   7  -1    9.05    1.05
   5   7   1    7.58    1.56
  -6   7  -1    6.01    0.93
   6  -7   1    8.24    1.27
   6   7   1    8.40    1.90
   6  -7   1    7.81    1.15
  -6   7  -1    6.06    1.35
   7  -7   1   62.19    3.52
   7  -7   1   76.46    4.41
  -7   7  -1   66.31    3.47
   7   7   1   73.39    5.53
   8   7   1   -0.02    1.15
   8   7   1    1.90    1.17
   8  -7   1    0.43    0.54
   8  -7   1    0.71    0.53
  -8   7  -1    0.97    0.47
   9   7   1   63.52    4.73
   9  -7   1   71.78    4.90
   9   7   1   69.30    6.16
  -9   7  -1   69.08    4.15
  10   7   1    0.84    1.15
  10  -7   1    3.45    1.37
  10   7   1    3.99    1.50
  11  -7   1    3.17    1.30
  11   7   1    6.76    2.11
  11   7   1    2.66    1.31
  12   7   1    4.15    1.88
  12  -7   1    4.60    1.73
  13   7   1    8.87    2.85
  13  -7   1    4.30    1.61
  14  -7   1    4.31    1.89
  13   8  -1    3.99    1.92
 -12   8   1   46.19    4.65
  12   8  -1   50.54    6.16
  12  -8  -1   43.46    4.34
  11   8  -1   -2.39    1.81
 -11   8   1    0.65    0.81
  11  -8  -1    1.91    1.24
 -10   8   1   12.67    2.10
  10   8  -1   17.98    3.55
  10  -8  -1   16.37    2.45
   9  -8  -1    6.94    1.54
   9   8  -1    4.43    1.09
   9   8  -1    8.98    2.65
  -9   8   1    6.68    1.55
   8   8  -1   52.26    3.22
  -8   8   1   57.57    3.98
   8  -8  -1   58.55    3.83
  -7   8   1  159.87    6.71
   7  -8  -1  144.17    5.78
   6  -8  -1   -0.41    0.55
  -6   8   1    0.76    0.64
   5  -8  -1    7.36    1.47
  -5   8   1    7.35    1.28
   5  -8  -1    6.48    0.83
  -4   8   1   62.82    3.70
   4  -8  -1   51.11    1.72
  -3   8   1   24.11    2.24
  -2   8   1   31.36    2.56
   1  -8  -1  104.71    4.88
   0  -8  -1   52.62    3.33
   0   8   1   53.78    2.26
   0  -8   1   50.22    3.08
  -1  -8  -1  289.44    9.02
   1  -8   1  288.29    8.42
   1   8   1  287.83    7.76
   2  -8   1   17.16    1.76
   2   8   1   18.34    1.98
  -2   8  -1   16.38    1.42
  -3   8  -1    9.73    1.35
   3   8   1    8.50    1.59
  -3   8  -1    9.42    1.10
  -3   8  -1   10.75    1.18
   4   8   1   30.35    3.15
  -4   8  -1   57.40    3.17
  -4   8  -1   56.21    2.86
  -4   8  -1   52.13    3.43
  -5   8  -1   18.41    1.57
   5   8   1   18.35    2.58
  -5   8  -1   19.23    2.11
  -5   8  -1   17.33    2.08
   5  -8   1   19.49    1.77
  -6   8  -1  140.15    4.97
   6   8   1  143.66    7.71
  -6   8  -1  136.53    6.40
  -6   8  -1  141.65    6.66
   6  -8   1  150.81    5.87
  -7   8  -1    2.70    0.77
   7  -8   1    3.40    1.14
   7   8   1    4.37    1.86
   8   8   1   14.13    2.26
  -8   8  -1   13.33    1.71
   8   8   1   13.62    2.63
   8  -8   1   17.03    2.28
   8  -8   1   14.40    1.80
   9   8   1    2.78    1.21
   9   8   1    0.81    1.09
  -9   8  -1    1.74    0.72
   9  -8   1    1.67    0.66
  10   8   1   11.15    2.67
  10  -8   1    8.12    1.75
  10   8   1    6.38    1.57
  11   8   1    3.54    1.24
  11  -8   1    3.09    1.38
  11   8   1    3.90    1.48
  12  -8   1   25.45    3.37
  12   8   1   26.00    4.23
  13  -8   1    9.77    2.09
  13   8   1   13.00    3.27
  13   9  -1   25.39    4.74
  12   9  -1   -0.20    1.26
  11  -9  -1    7.18    1.81
 -11   9   1    6.39    1.73
  11   9  -1    8.59    2.74
  10  -9  -1    2.18    0.99
 -10   9   1    3.07    1.27
  10   9  -1    4.69    2.42
  -9   9   1    3.61    1.36
   9   9  -1    2.67    0.76
   9   9  -1    4.38    1.43
   9  -9  -1    3.13    0.97
   8   9  -1   25.05    2.27
  -8   9   1   22.05    2.51
   8  -9  -1   26.64    2.49
  -7   9   1   52.59    3.79
   7  -9  -1   55.21    3.14
   6  -9  -1  137.86    4.64
  -6   9   1  139.33    6.24
   5  -9  -1   21.61    1.27
  -5   9   1   22.62    2.37
  -4   9   1    4.70    1.24
  -3   9   1    2.15    0.87
  -2   9   1  159.44    6.61
   1  -9  -1  186.84    7.04
   0  -9  -1   67.53    4.02
   0  -9   1   74.66    4.05
   0   9   1   74.59    2.83
  -1  -9  -1    6.63    1.25
   1   9   1    7.10    1.06
   1  -9   1    5.16    0.91
   2   9   1  128.75    5.53
  -2  -9  -1  125.30    5.84
  -2   9  -1  122.18    4.21
   2  -9   1  136.27    5.55
   3   9   1   11.42    1.74
  -3   9  -1   10.84    1.60
  -3   9  -1   13.24    1.28
  -3   9  -1   14.79    1.61
  -4   9  -1    9.34    1.22
  -4   9  -1    9.48    1.28
  -4   9  -1    8.46    1.49
   4   9   1    5.78    1.50
  -5   9  -1    1.26    0.57
  -5   9  -1    1.14    0.39
   5   9   1   -0.12    0.66
  -5   9  -1    0.30    0.73
   6  -9   1   53.49    3.23
  -6   9  -1   53.06    2.94
   6   9   1   53.79    4.76
  -6   9  -1   52.20    3.84
   7  -9   1  112.54    5.24
  -7   9  -1  101.68    4.44
   7   9   1  110.48    7.21
   8   9   1    9.00    2.24
  -8   9  -1   11.05    1.46
   8  -9   1   10.59    1.83
  -9   9  -1   10.25    1.65
   9   9   1    9.49    2.56
   9  -9   1   10.37    1.83
   9   9   1   10.29    2.11
  10   9   1    0.19    0.69
  10   9   1    1.52    0.94
  10  -9   1    2.32    1.08
  11  -9   1    9.42    2.10
  11   9   1    5.79    2.18
  11   9   1    9.70    2.09
  12   9   1   17.50    3.72
  13   9   1   -1.46    1.62
  13  10  -1   -2.61    1.90
  12  10  -1    3.81    2.03
 -11  10   1    0.02    0.81
  11  10  -1    4.40    1.85
  10  10  -1    5.46    2.34
 -10  10   1   -0.57    0.66
   9  10  -1   10.11    3.25
  -9  10   1    3.51    1.22
   9  10  -1    4.87    1.11
   9 -10  -1    6.03    1.26
  -8  10   1    9.86    1.84
   8 -10  -1    9.01    1.39
   7 -10  -1   28.88    2.12
  -7  10   1   28.42    2.87
   6 -10  -1    1.14    0.40
  -6  10   1    1.15    0.54
  -5  10   1    2.13    0.81
  -4  10   1   -0.17    0.48
  -3  10   1    0.68    0.78
  -2  10   1    8.04    1.47
   1 -10  -1   19.82    2.17
   0 -10  -1   20.61    2.27
   0  10   1   22.89    1.53
   0 -10   1   20.00    2.19
  -1 -10  -1   23.67    2.51
   1  10   1   29.43    2.22
   1 -10   1   26.42    2.47
  -2  10  -1    9.47    1.10
  -2 -10  -1    7.99    1.46
   2  10   1    9.88    1.49
   2 -10   1    9.78    1.50
  -3  10  -1    1.01    0.49
  -3  10  -1    0.35    0.37
  -3  10  -1    1.87    0.72
   3  10   1    1.36    0.93
  -4  10  -1    6.54    1.15
   4  10   1    3.28    1.32
  -4  10  -1    7.35    1.13
   5  10   1   10.01    1.97
  -5  10  -1   11.16    1.66
  -5  10  -1   11.73    1.43
   6  10   1   19.55    2.98
  -6  10  -1   19.35    1.83
  -6  10  -1   20.91    2.47
   7  10   1    2.94    1.32
   7 -10   1    1.85    0.73
  -7  10  -1    0.53    0.52
  -8  10  -1    0.90    0.46
   8  10   1    1.93    1.25
   8 -10   1    1.70    0.87
   9 -10   1   -0.07    0.75
   9  10   1   -0.62    1.44
   9  10   1    2.06    1.12
  10  10   1   -0.30    0.91
  10  10   1    0.54    1.07
  10 -10   1    1.66    0.93
  11  10   1   -1.10    1.41
  11  10   1    1.86    0.98
  12  10   1    2.50    1.80
  12  11  -1    0.69    1.37
  11  11  -1   -0.68    1.33
  10  11  -1   -1.25    1.45
 -10  11   1   -0.32    0.56
  -9  11   1   -0.83    0.62
   9  11  -1   -0.60    1.24
   8  11  -1   13.40    3.07
  -8  11   1    9.27    1.71
   8 -11  -1    9.54    1.37
  -7  11   1    1.41    0.72
   7 -11  -1    0.39    0.34
  -6  11   1   13.29    2.05
  -5  11   1    1.77    0.82
  -4  11   1   -0.33    0.75
  -3  11   1   11.78    1.83
  -2  11   1    5.74    1.15
   1 -11  -1    8.94    1.60
  -1 -11   1    6.06    1.36
   0  11   1    3.23    0.64
   0 -11  -1    3.53    0.95
   0 -11   1    2.22    0.93
   1 -11   1    0.62    0.81
  -1 -11  -1   -0.46    0.77
   1  11   1    0.19    0.46
  -2  11  -1   27.61    1.82
   2  11   1   29.11    2.62
  -2 -11  -1   25.12    2.78
   2 -11   1   26.68    2.65
   3  11   1   -0.67    0.88
  -3  11  -1    2.96    1.08
  -3  11  -1    1.46    0.73
  -3 -11  -1    0.45    0.80
   4  11   1    1.64    0.70
  -4  11  -1    3.55    0.98
  -4  11  -1    3.55    0.76
   5  11   1    5.14    1.67
  -5  11  -1    3.91    0.98
  -5  11  -1    5.51    1.10
  -6  11  -1    0.53    0.51
   6  11   1   -0.08    0.94
  -6  11  -1    1.25    0.81
  -7  11  -1   15.48    1.73
   7  11   1   19.65    3.21
  -8  11  -1    0.67    0.38
   8 -11   1   -0.53    0.44
   8  11   1   -1.01    1.19
   9  11   1    0.75    0.97
   9 -11   1    0.90    0.61
  10  11   1    1.56    1.49
  10  11   1    1.29    0.87
  11  11   1    0.89    1.36
  12  11   1    4.04    1.94
  12  12  -1   14.64    3.59
  11  12  -1    1.02    1.85
  10  12  -1    3.94    2.40
 -10  12   1    0.82    0.80
   9  12  -1    1.46    1.88
  -9  12   1    0.71    0.59
   8  12  -1   29.65    4.60
  -8  12   1   23.51    2.87
  -7  12   1   68.35    4.86
  -6  12   1    0.64    0.66
  -5  12   1    2.26    0.74
  -4  12   1   23.71    2.85
  -3  12   1    3.15    1.08
  -2  12   1   43.82    3.82
   1 -12  -1   14.70    2.06
  -1 -12   1   11.43    1.80
   0 -12  -1   36.88    3.35
   0  12   1   37.06    2.14
   0 -12   1   34.40    3.16
  -1 -12  -1  138.56    6.88
   1 -12   1  148.80    6.78
   1  12   1  144.72    5.55
  -2 -12  -1    4.91    1.34
   2 -12   1    5.82    1.33
  -2  12  -1    4.48    0.74
   2  12   1    4.80    1.16
   3  12   1   13.91    2.08
  -3  12  -1   12.64    1.26
  -3 -12  -1   14.84    2.18
  -3  12  -1   16.69    2.12
  -4  12  -1    9.07    1.45
   4  12   1    5.33    1.36
  -4  12  -1    6.16    0.96
   5  12   1   18.16    2.79
  -5  12  -1   20.16    2.02
  -5  12  -1   22.51    2.31
  -6  12  -1   79.83    4.29
   6  12   1   82.99    6.29
  -7  12  -1    2.12    0.87
   7  12   1    3.15    1.45
   8  12   1   18.42    3.20
   9  12   1    1.03    1.35
  10  12   1    0.46    0.98
  10  12   1    1.03    1.02
  11  12   1    6.61    2.32
  12  12   1    6.00    2.77
  12  13  -1    0.64    1.92
  11  13  -1    0.92    2.12
  10  13  -1    7.02    2.53
   9  13  -1    1.80    1.64
  -9  13   1    0.85    0.83
  -8  13   1   16.15    2.50
   8  13  -1   18.89    3.81
  -7  13   1   33.44    3.42
  -6  13   1   30.24    3.22
  -5  13   1   43.05    3.92
  -4  13   1   29.92    3.24
  -3  13   1   16.16    2.43
  -2 -13   1   95.14    5.75
  -2  13   1  102.23    6.22
  -1 -13   1   84.87    5.33
   1 -13  -1   84.87    5.38
   0 -13   1   50.23    3.96
   0  13   1   48.25    2.46
   0 -13  -1   53.54    4.24
  -1 -13  -1   -0.03    0.97
   1 -13   1    0.22    0.47
   1  13   1   -0.64    0.60
  -2 -13  -1   89.97    5.68
  -2  13  -1   77.68    3.30
   2  13   1   91.01    4.92
   2 -13   1   92.71    5.54
   3  13   1    7.70    1.47
  -3 -13  -1    7.69    1.82
  -3  13  -1    7.72    0.99
  -3  13  -1    8.91    1.58
  -4 -13  -1    1.63    0.91
  -4  13  -1   -1.02    0.61
  -4  13  -1    0.97    0.51
   4  13   1    0.38    0.96
   5  13   1   -0.72    1.07
  -5  13  -1    0.54    0.72
  -6  13  -1   20.43    2.24
   6  13   1   20.36    3.16
   7  13   1  129.42    8.46
  -7  13  -1  121.99    5.65
   8  13   1    3.43    1.46
   9  13   1   10.38    2.84
  10  13   1   -3.52    2.17
  11  13   1    4.96    2.10
  11  14  -1    2.38    2.04
  10  14  -1   47.45    6.09
   9  14  -1    8.83    2.72
  -9  14   1    4.81    1.53
  -8  14   1    6.04    1.63
   8  14  -1   10.41    2.87
   7  14  -1   45.47    5.48
  -7  14   1   54.75    4.59
  -6  14   1    2.04    1.11
  -5  14   1   49.41    4.35
  -4  14   1    3.39    1.27
  -3  14   1    4.87    1.41
  -2 -14   1   -1.08    1.01
  -2  14   1   -0.97    0.84
  -1 -14   1   45.75    3.98
   1 -14  -1   48.15    4.15
   0 -14  -1    5.68    1.48
   0  14   1    4.56    0.84
   0 -14   1    4.39    1.31
   1 -14   1  120.46    6.51
  -1 -14  -1  109.79    6.44
   1  14   1  118.18    5.10
   2 -14   1   21.35    2.76
  -2 -14  -1   25.52    3.04
  -2  14  -1   19.00    1.51
   2  14   1   25.09    2.49
  -3  14  -1   15.70    2.24
  -3 -14  -1   14.68    2.46
   3  14   1   13.30    2.08
  -4  14  -1   53.94    4.02
   4  14   1   50.13    4.33
  -4 -14  -1   52.91    4.82
   5  14   1    0.20    1.13
  -5  14  -1    1.15    0.65
  -6  14  -1   40.42    3.32
   6  14   1   35.59    4.19
   7  14   1   -0.40    0.89
   8  14   1   -0.68    0.98
   9  14   1   -1.62    1.62
  10  14   1   14.23    3.20
  11  14   1   -1.03    1.37
  11  15  -1   11.76    3.38
  10  15  -1    6.46    2.55
   9  15  -1   46.84    5.88
   8  15  -1    2.78    2.29
  -8  15   1   -0.06    0.56
   7  15  -1    1.85    1.78
  -7  15   1    3.08    1.16
  -6  15   1    4.67    1.42
  -5  15   1    1.40    1.29
  -4  15   1  114.78    7.04
  -3  15   1    7.85    1.76
  -3 -15   1    7.50    1.83
  -2  15   1   41.50    4.23
  -2 -15   1   38.61    3.89
  -1 -15   1   15.90    2.47
   1 -15  -1   16.13    2.53
   0 -15   1    2.42    1.29
   0 -15  -1   -0.56    1.02
   0  15   1    1.56    0.53
  -1 -15  -1   68.14    5.20
   1  15   1   68.63    3.84
   1 -15   1   68.25    5.11
   2 -15   1    0.03    0.56
  -2 -15  -1    0.44    0.82
   2  15   1    0.20    0.61
  -3  15  -1    8.15    1.78
  -3 -15  -1   10.06    2.03
   3  15   1   10.89    1.97
  -4 -15  -1   69.46    5.66
  -4  15  -1   67.86    4.80
   4  15   1   66.62    5.16
  -5  15  -1    5.90    1.41
   5  15   1    4.75    1.34
  -5 -15  -1    6.31    2.03
   6  15   1    0.16    0.90
   7  15   1    4.94    1.71
   8  15   1   -0.81    1.45
   9  15   1   56.54    6.07
  10  15   1    2.66    1.80
  11  15   1    6.38    3.52
  11  16  -1    0.15    1.77
  10  16  -1   39.12    5.67
   9  16  -1    1.63    1.09
   8  16  -1   10.56    2.92
  -8  16   1   14.16    2.53
   7  16  -1    2.75    2.16
  -7  16   1    0.80    0.93
  -6  16   1    4.64    1.51
   6  16  -1    3.65    1.92
  -5  16   1   87.88    6.20
  -4  16   1    0.75    1.02
  -3 -16   1   13.49    2.52
  -3  16   1   14.61    2.61
  -2 -16   1    5.50    1.48
  -2  16   1    7.05    1.91
   1 -16  -1   16.40    2.60
  -1 -16   1   17.12    2.72
   0 -16  -1   82.02    5.86
   0 -16   1   76.53    5.60
  -1 -16  -1    1.26    1.41
   1 -16   1    1.83    1.35
   1  16   1    1.85    0.66
  -2 -16  -1    2.61    1.18
   2 -16   1    2.28    1.08
   2  16   1    6.31    1.58
   3  16   1   16.14    2.35
  -3 -16  -1   12.52    2.43
  -3  16  -1   11.69    2.16
  -4 -16  -1   18.91    2.91
  -4  16  -1   17.67    2.61
   4  16   1   18.50    2.79
   5  16   1   34.38    3.91
  -5 -16  -1   37.98    4.46
  -5  16  -1   46.91    3.97
  -6 -16  -1    2.61    1.38
   6  16   1    0.58    0.98
   7  16   1    0.73    1.21
   8  16   1   10.37    2.85
   9  16   1   10.22    3.14
  10  16   1   19.92    4.15
  10  17  -1    4.23    2.61
   9  17  -1   16.29    3.73
   8  17  -1    4.11    2.06
  -7  17   1    0.54    0.98
   7  17  -1    2.65    1.76
  -6  17   1   13.51    2.66
   6  17  -1   18.13    3.48
   5  17  -1   15.91    3.31
  -5  17   1   16.02    2.67
  -4  17   1   17.48    2.95
  -4 -17   1   17.61    3.10
  -3  17   1   22.33    3.32
  -3 -17   1   16.57    2.75
  -2  17   1   -0.60    1.01
  -2 -17   1   -1.17    1.14
   1 -17  -1   41.40    4.32
  -1 -17   1   34.60    3.92
   0 -17   1    4.81    1.46
   0 -17  -1    4.96    1.64
  -1 -17  -1   17.37    2.80
   1 -17   1   16.94    2.65
  -2 -17  -1    5.32    1.44
   2 -17   1    4.73    1.53
  -3 -17  -1   15.07    2.74
  -3  17  -1   14.79    2.55
   3  17   1   19.17    2.62
   4  17   1   14.82    2.58
  -4  17  -1   12.51    2.21
  -4 -17  -1   12.74    2.72
   5  17   1    2.04    1.05
  -5 -17  -1    2.62    1.20
   6  17   1    9.98    2.51
  -6 -17  -1   16.07    3.09
  -7 -17  -1   -0.62    1.42
   7  17   1   -1.18    1.34
   8  17   1   10.09    2.63
   9  17   1    0.47    1.83
  10  17   1    5.46    2.21
  10  18  -1   -0.01    1.23
   9  18  -1   14.35    3.31
   8  18  -1    7.65    2.89
   7  18  -1    2.46    1.99
   6  18  -1   22.73    3.85
  -6  18   1   16.28    2.90
  -5 -18   1    0.79    0.78
  -5  18   1   -0.47    0.88
   5  18  -1    1.03    1.13
  -4  18   1    9.88    2.37
   4  18  -1   14.56    3.00
  -4 -18   1   10.12    2.45
  -3  18   1    3.08    1.86
  -3 -18   1    2.41    1.40
  -2 -18   1   24.81    3.39
  -2  18   1   25.80    3.70
   1 -18  -1   -0.17    0.74
  -1 -18   1    0.03    0.63
   0 -18  -1   12.47    2.41
   0 -18   1   12.38    2.40
  -1 -18  -1    1.85    1.19
   1 -18   1    1.98    1.01
  -2 -18  -1   24.58    3.50
   2 -18   1   27.88    3.72
  -3 -18  -1   34.49    4.28
  -3  18  -1   40.41    4.21
  -4 -18  -1    7.57    2.01
  -4  18  -1    4.38    1.47
  -5 -18  -1    9.13    2.30
   5  18   1    8.33    2.19
  -6 -18  -1    9.12    2.38
   6  18   1    4.73    1.78
   7  18   1    2.25    1.19
  -7 -18  -1    1.53    1.13
  -8 -18  -1    2.19    1.88
   8  18   1    1.21    1.39
   9  18   1   -0.49    1.26
  10  18   1   -0.69    1.61
  10  19  -1    0.88    2.38
   9  19  -1    1.37    1.73
   8  19  -1   14.38    3.34
   7  19  -1    0.02    1.32
  -6  19   1    0.38    0.98
  -6 -19   1    0.82    1.24
  -5  19   1    2.96    1.51
  -5 -19   1    2.95    1.39
  -4 -19   1   20.32    3.25
  -4  19   1   27.27    3.76
  -3  19   1   76.95    6.44
  -3 -19   1   70.95    6.13
  -2  19   1    6.83    1.91
  -2 -19   1    5.24    1.77
  -1 -19   1    0.38    1.18
   1 -19  -1    0.59    0.95
  -1  19   1   -0.16    0.94
   0 -19  -1    0.98    1.39
   0 -19   1    1.55    1.17
   1 -19   1    3.84    1.54
  -1 -19  -1    5.31    1.62
  -2 -19  -1   40.10    4.63
  -2  19  -1   30.62    3.93
  -3  19  -1    0.30    0.68
  -3 -19  -1    1.99    1.52
  -4 -19  -1   18.86    3.19
  -5 -19  -1   32.09    4.41
  -6 -19  -1    0.78    1.17
  -7 -19  -1    4.43    1.88
  -6 -20   1    7.17    2.25
  -5 -20   1    4.25    1.59
  -5  20   1    8.17    2.30
  -4 -20   1    5.79    1.99
  -4  20   1    4.71    1.77
  -3  20   1    4.42    1.83
  -3 -20   1    3.14    1.60
  -2 -20   1   19.00    3.30
  -2  20   1   24.10    3.87
  -1 -20   1    2.72    1.75
  -1  20   1    1.68    1.49
   1 -20  -1    2.11    1.07
   0 -20   1   -1.64    1.34
   0 -20  -1    0.05    1.01
  -1 -20  -1    2.85    1.63
   1 -20   1    1.63    1.44
  -2 -20  -1   19.96    3.49
  -2  20  -1   12.64    2.68
  -3 -20  -1   35.22    4.51
  -4 -20  -1   10.67    2.52
  -5 -20  -1   -0.65    0.80
  -5 -21   1   -0.84    1.15
  -4 -21   1    1.31    1.36
  -4  21   1   -0.02    0.72
  -3 -21   1    1.98    1.38
  -3  21   1    3.30    1.78
  -2 -21   1    3.54    1.98
  -2  21   1    4.63    1.82
  -1  21   1    2.62    1.75
  -1 -21   1   -0.02    1.06
   0 -21  -1    2.92    1.60
   0 -21   1    0.81    1.10
  -1 -21  -1   -1.00    0.97
   1 -21   1    1.34    1.29
  -2 -21  -1    0.28    1.07
  -3 -21  -1    0.06    0.78
  -4 -21  -1    0.56    0.88
  -3 -22   1    7.11    2.30
  -3  22   1   12.38    2.95
  -2 -22   1   10.09    2.56
  -2  22   1   11.76    3.00
  -1 -22   1    0.52    0.86
  -1  22   1    1.08    1.11
   0 -22   1    1.35    0.87
   0 -22  -1    2.16    1.46
   1 -22   1    5.20    1.72
  -1 -22  -1    7.25    2.03
  -3  23   1   25.40    4.12
  -2  23   1    2.21    1.56
  -1  23   1    2.73    1.53
   0 -23   1   -0.06    1.05
   0  23   1    0.98    1.59
  -2  24   1    3.15    1.79
  15   0  -2   37.54    5.48
  14   0  -2    6.89    2.61
  13   0  -2   62.69    6.51
  12   0  -2   23.58    3.62
  11   0  -2    0.98    1.15
 -10   0   2    2.11    1.04
  -9   0   2  110.24    5.25
  -9   0   2  133.34    7.10
  -8   0   2  123.54    5.35
  -8   0   2  143.69    7.11
  -7   0   2   11.43    1.83
  -6   0   2  106.15    5.22
  -5   0   2   15.09    1.78
  -4   0   2  286.70    8.23
  -3   0   2   32.12    2.13
  -2   0   2  149.09    4.72
  -1   0   2   64.93    2.64
   0   0   2   38.03    1.86
   1   0   2   14.92    0.84
   1   0   2   11.66    1.20
   1   0   2   11.35    0.96
   2   0   2  332.98    8.88
   2   0   2  301.48    8.11
   3   0   2  337.25    9.61
   3   0   2  325.36    9.00
   4   0   2    9.06    1.51
   4   0   2    9.05    1.32
   5   0   2   56.88    3.99
   5   0   2   50.30    3.47
   6   0   2    2.55    0.80
   6   0   2    1.89    0.66
   6   0   2    1.92    1.02
   7   0   2  281.42   10.03
   7   0   2  244.83    8.33
   8   0   2   83.30    4.54
   8   0   2   77.20    5.41
   9   0   2   27.70    3.40
  10   0   2    8.38    1.99
  11   0   2   29.26    3.97
  12   0   2   60.90    5.79
  13   0   2    2.57    1.62
  14   0   2   58.74    6.17
  15   1  -2   11.74    3.18
  15  -1  -2   16.33    3.70
  14  -1  -2   79.11    7.46
  14   1  -2   88.10    8.12
  13   1  -2   11.72    3.12
  13  -1  -2    8.75    2.46
  12  -1  -2    3.59    1.84
  12   1  -2    2.79    1.67
 -11   1   2   28.51    3.46
  11  -1  -2   34.23    4.36
  11   1  -2   37.31    4.84
 -10  -1   2   32.35    2.87
 -10   1   2   38.51    3.98
  10  -1  -2   48.05    5.01
  -9  -1   2  114.83    5.23
  -9  -1   2  137.20    7.15
  -9   1   2  131.13    7.04
  -8  -1   2  103.10    4.52
  -8  -1   2  119.50    6.41
  -8   1   2  110.05    5.98
  -7  -1   2    6.33    0.98
  -7  -1   2    7.04    1.54
  -7   1   2    6.78    1.37
  -6  -1   2    5.63    0.81
  -6   1   2    6.95    1.32
  -6  -1   2    5.45    1.20
  -5  -1   2    1.78    0.56
  -5   1   2    3.51    0.90
  -4   1   2    2.13    0.63
  -4  -1   2    1.71    0.68
  -3   1   2  654.72   14.28
  -3  -1   2  647.83   14.31
  -2   1   2    1.59    0.65
  -2  -1   2    1.70    0.56
  -1  -1   2   27.82    1.63
  -1   1   2   25.66    1.73
   0  -1   2   32.05    1.62
   0   1  -2   32.31    1.65
   0   1   2   35.28    1.90
   0  -1   2   36.01    2.01
   1  -1   2   53.61    2.75
  -1  -1  -2   46.01    1.90
   1   1   2   50.62    2.08
   1   1   2   47.75    2.37
   1  -1   2   44.32    1.73
  -1   1  -2   44.95    1.85
   1   1   2   42.38    2.15
   2   1   2  599.72   12.73
   2  -1   2  512.00   10.53
   2  -1   2  556.96   12.40
   2  -1   2  633.17   13.61
  -2  -1  -2  563.75   11.15
   3  -1   2   61.98    3.69
   3   1   2   63.18    3.53
   3   1   2   58.83    3.26
   3  -1   2   57.64    3.17
   4   1   2   16.17    1.86
   4   1   2   20.52    2.21
   4  -1   2   21.57    2.37
   4  -1   2   16.74    1.83
   5   1   2    7.89    1.57
   5  -1   2    6.97    1.03
   5   1   2    9.51    1.68
   5  -1   2    9.53    1.61
   6  -1   2   10.08    1.29
   6  -1   2   11.48    1.81
   6   1   2   11.38    1.80
   6   1   2   14.25    2.15
   7   1   2   39.28    3.77
   7   1   2   36.31    2.95
   7  -1   2   40.19    3.52
   7   1   2   37.30    3.51
   7  -1   2   39.07    2.67
   8  -1   2  215.32    7.38
   8  -1   2  223.97    9.32
   8   1   2  186.19    8.79
   9  -1   2   30.40    3.51
   9   1   2   36.23    3.83
  10   1   2   20.34    3.25
  10  -1   2   13.86    2.60
  11  -1   2    5.46    1.80
  11   1   2    7.57    2.14
  12   1   2    1.45    1.08
  12  -1   2    1.29    1.11
  13   1   2   97.55    7.79
  13  -1   2  104.62    7.93
  14  -1   2    5.69    2.20
  14   1   2    3.83    1.87
  15  -2  -2    5.94    2.49
  15   2  -2    3.07    2.14
  14  -2  -2   27.48    4.23
  14   2  -2   26.31    4.69
  13   2  -2   33.07    4.89
  13  -2  -2   32.64    4.70
  12  -2  -2   87.06    6.98
  12   2  -2  102.56    8.38
 -12   2   2   78.72    6.15
  11  -2  -2    7.77    2.12
 -11   2   2    5.16    1.41
  11   2  -2    6.78    2.30
  10  -2  -2    3.34    1.43
 -10   2   2    2.38    1.12
  -9   2   2  142.51    7.29
  -8  -2   2   58.32    4.44
  -8   2   2   53.48    4.03
  -7  -2   2  179.96    7.72
  -7   2   2  176.67    7.16
  -6   2   2    0.53    0.42
  -6  -2   2    0.82    0.91
  -6  -2   2    0.58    0.31
  -5  -2   2   18.65    2.12
  -5   2   2   16.92    1.79
  -5  -2   2   15.24    0.99
  -4   2   2  530.53   12.66
  -4  -2   2  529.06   13.23
  -3  -2   2   22.53    1.95
  -3   2   2   23.32    1.87
  -2  -2   2  582.43   12.65
  -2  -2   2  572.64   10.68
  -1  -2   2   11.67    1.08
  -1  -2   2   10.80    0.91
  -1   2   2   10.51    1.17
   0  -2   2   14.15    1.00
   0   2  -2   14.21    1.04
   0  -2   2   15.22    1.30
   0   2   2   13.78    1.37
   1   2   2  446.65   10.18
   1  -2   2  459.69    8.57
   1   2   2  469.82   10.05
  -1  -2  -2  447.54    9.63
   1  -2   2  465.43   11.02
  -1   2  -2  419.43    8.60
  -2  -2  -2  103.41    3.53
   2  -2   2   93.82    3.78
   2  -2   2  110.57    4.78
   2   2   2   95.94    4.05
   3  -2   2  514.63   12.31
   3   2   2  536.66   12.79
   4  -2   2    1.25    0.35
   4   2   2    3.64    1.22
   4  -2   2    1.59    0.69
   4   2   2    1.63    0.86
  -4   2  -2    2.18    1.14
   5  -2   2   13.21    1.18
   5  -2   2   13.64    1.74
   5   2   2   15.80    2.03
   5   2   2   11.30    1.70
   6   2   2  128.32    6.27
   6  -2   2  121.52    4.37
   6  -2   2  134.06    6.10
   6   2   2  119.91    6.19
   7  -2   2  134.48    6.51
   7   2   2  104.72    6.17
   7   2   2  129.87    6.76
   7  -2   2  110.26    4.53
   8   2   2  125.72    7.12
   8  -2   2  125.78    6.75
   8  -2   2  116.89    5.00
   8   2   2  100.83    6.55
   9  -2   2    2.63    0.87
   9  -2   2    1.99    1.11
   9   2   2    4.88    1.93
  10  -2   2   22.04    3.11
  10   2   2   22.48    3.33
  11  -2   2   47.52    4.77
  11   2   2   52.69    5.33
  12  -2   2   45.92    4.99
  12   2   2   44.67    5.07
  13  -2   2   14.47    2.96
  13   2   2   11.46    2.85
  14  -2   2   13.16    2.87
  15  -3  -2   11.06    3.04
  14   3  -2    5.55    2.32
  14  -3  -2    5.59    2.06
  13  -3  -2   95.32    7.50
  13   3  -2  101.04    8.97
 -12   3   2   28.77    3.74
  12  -3  -2   34.02    4.21
  12   3  -2   41.09    5.39
 -11   3   2   48.39    4.73
  11  -3  -2   61.73    5.46
  11   3  -2   52.81    5.73
 -10   3   2   55.31    4.73
  10  -3  -2   83.37    6.13
  -9   3   2    0.44    0.71
  -8   3   2  353.29   11.41
  -7   3   2   14.62    1.89
  -6   3   2  264.27    8.57
  -6  -3   2  248.71    9.15
  -5  -3   2  200.22    7.56
  -5   3   2  188.95    6.76
   5  -3  -2  210.28    7.52
  -4  -3   2    6.49    1.18
  -4   3   2    6.73    1.09
  -3  -3   2  781.10   17.27
  -3   3   2  777.38   16.69
   2   3  -2    4.74    0.63
  -2  -3   2    5.89    1.22
  -2   3   2    1.67    0.51
   1   3  -2  518.68   10.44
  -1   3   2  501.51   11.60
   1   3  -2  496.45   10.88
  -1  -3   2  456.13   10.87
   0  -3  -2  289.32    7.36
   0  -3   2  286.70    6.82
   0  -3  -2  300.78    7.62
   0   3  -2  306.65    6.76
   0   3   2  294.51    7.20
   0   3  -2  290.53    7.70
   0   3   2  304.76    7.90
   1  -3   2   22.83    1.05
  -1  -3  -2   22.53    1.66
   1   3   2   22.12    1.67
  -1   3  -2   20.86    0.98
   2   3   2  701.83   15.35
   2  -3   2  673.87   14.68
  -2  -3  -2  705.39   14.78
   3  -3   2   10.42    1.33
  -3   3  -2   10.68    1.53
   3   3   2   13.55    1.68
  -4   3  -2  215.46    7.53
   4  -3   2  197.94    4.43
   4   3   2  220.50    7.55
   4  -3   2  223.22    7.08
   5   3   2  159.18    6.67
   5  -3   2  135.70    3.94
   5  -3   2  153.22    6.16
   5   3   2  150.52    6.61
   6   3   2   61.47    4.28
   6  -3   2   55.17    2.59
   6   3   2   55.80    4.24
   6  -3   2   64.46    4.11
   7   3   2  260.83   10.59
   7   3   2  314.35   11.11
   7  -3   2  305.42    8.20
   7  -3   2  346.57   11.07
   8   3   2   14.44    2.30
   8   3   2   12.01    2.23
   8  -3   2   11.26    1.48
   8  -3   2   12.79    2.15
   9   3   2   62.19    5.35
   9  -3   2   54.23    4.60
   9   3   2   64.86    5.25
  10  -3   2   18.61    2.79
  10   3   2   20.27    3.22
  11   3   2   53.64    5.41
  11  -3   2   47.79    4.73
  12   3   2   59.34    6.00
  12  -3   2   59.10    5.52
  13  -3   2   12.90    2.80
  13   3   2   15.83    3.32
  14  -3   2    6.01    1.96
  16  -4  -2    5.35    2.48
  15  -4  -2    2.99    1.56
  14   4  -2   73.87    8.08
  14  -4  -2   50.27    5.70
  13   4  -2   14.12    3.72
  13  -4  -2   20.17    3.33
 -13   4   2   17.61    3.03
  12  -4  -2   88.76    6.71
  12   4  -2   99.11    8.58
 -12   4   2   76.59    6.18
 -11   4   2   47.37    4.64
  11  -4  -2   62.76    5.45
  11   4  -2   61.03    6.72
  10  -4  -2   -1.15    0.95
 -10   4   2    0.72    0.97
   9  -4  -2  126.96    7.09
  -9   4   2  106.51    6.07
  -8   4   2    1.93    0.94
  -7   4   2  458.75   12.96
  -6   4   2  222.57    7.82
   5  -4  -2    8.11    1.52
  -5   4   2    7.30    1.22
  -4   4   2  399.46   10.58
  -3   4   2   17.88    1.75
  -2   4   2  726.73   15.89
   1   4  -2  104.32    4.08
  -1   4   2  113.02    4.54
   1  -4  -2  117.04    3.62
   0   4   2  320.00    8.60
   0   4   2  296.93    7.35
   0  -4  -2  307.66    7.61
   0   4  -2  315.84    7.34
   0  -4  -2  308.94    8.13
  -1  -4  -2  890.13   17.92
   1  -4   2  844.33   15.80
  -1   4  -2  889.97   18.27
   1   4   2  821.99   17.36
  -1  -4  -2  865.48   17.93
  -1   4  -2  872.87   15.65
  -2  -4  -2    2.99    0.94
  -2   4  -2    0.82    0.51
  -2  -4  -2    1.47    0.85
   2   4   2    1.92    0.82
  -3   4  -2  259.76    5.89
   3   4   2  284.64    8.49
   3  -4   2  284.20    7.82
  -3   4  -2  286.52    8.35
  -4   4  -2    1.15    0.65
   4   4   2    1.48    0.93
   4  -4   2    0.09    0.50
   5  -4   2  249.28    8.00
   5   4   2  239.28    8.81
   5  -4   2  220.10    5.18
   6   4   2  312.58   11.30
   6  -4   2  365.22   11.01
   6   4   2  349.76   11.39
   6  -4   2  340.87    7.96
   7   4   2    5.64    1.50
   7  -4   2    4.66    0.82
   7  -4   2    5.89    1.50
   7   4   2    3.92    1.47
   8   4   2   74.86    5.25
   8  -4   2   63.62    3.43
   8  -4   2   84.49    5.41
   8   4   2   73.00    5.49
   9   4   2    0.69    0.73
   9  -4   2    0.16    0.70
   9   4   2    2.38    1.41
  10   4   2   30.50    3.98
  10   4   2   31.90    3.94
  10  -4   2   26.26    3.38
  11   4   2   43.65    5.03
  11  -4   2   36.34    4.15
  12  -4   2   39.24    4.52
  12   4   2   40.92    5.11
  13  -4   2   43.13    4.91
  13   4   2   50.10    5.71
  14  -4   2    1.16    1.31
  15  -5  -2    6.17    2.13
 -14   5   2    2.47    1.33
  14   5  -2    3.83    2.00
  14  -5  -2    3.15    1.76
 -13   5   2   82.65    6.68
  13   5  -2   94.21    8.74
  13  -5  -2   79.64    6.52
  12   5  -2  108.40    9.17
 -12   5   2   73.29    6.20
  12  -5  -2   93.36    6.78
  11  -5  -2   -0.24    0.87
 -11   5   2    0.88    0.92
  11   5  -2    3.08    2.03
  10  -5  -2   23.02    3.04
 -10   5   2   19.47    2.71
  -9   5   2    5.57    1.45
   9  -5  -2    7.19    1.61
  -8   5   2  193.95    7.98
   8  -5  -2  202.59    8.56
  -7   5   2   41.94    3.32
  -6   5   2  202.06    7.47
  -5   5   2  265.63    8.50
   4  -5  -2   -0.88    0.74
  -4   5   2   -0.14    0.50
  -3   5   2  102.73    4.56
   2   5  -2   36.44    2.79
  -2   5   2   38.52    2.65
   1   5  -2  551.28   13.13
  -1   5   2  562.09   13.36
   1  -5  -2  567.10   11.50
   0  -5  -2  440.14   10.81
   0   5  -2  410.41    9.96
   0   5   2  437.28    9.54
   0  -5  -2  441.08    9.86
   1  -5   2    3.25    0.60
   1   5   2    2.46    0.63
  -1  -5  -2    3.14    0.83
  -1   5  -2    4.07    0.58
  -1  -5  -2    2.94    0.74
  -2  -5  -2  120.28    4.88
  -2   5  -2  122.88    4.92
   2   5   2  117.32    4.71
  -2  -5  -2  126.26    5.37
  -3  -5  -2   10.95    1.75
   3  -5   2    6.75    1.08
  -3   5  -2    7.50    1.46
   3   5   2    7.70    1.39
  -3   5  -2    5.57    0.68
  -4   5  -2  264.38    6.72
   4  -5   2  270.99    8.04
  -4   5  -2  278.72    8.88
   4   5   2  274.37    9.16
   5   5   2   37.51    3.31
   5  -5   2   36.81    2.80
   6   5   2  155.85    7.50
   6  -5   2  179.19    7.02
   6  -5   2  163.09    4.53
   7   5   2  190.98    8.35
   7  -5   2  216.23    8.31
   7  -5   2  187.34    5.53
   8   5   2    2.88    1.30
   8  -5   2    0.61    0.40
   8  -5   2   -0.32    0.86
   8   5   2    2.85    1.55
   9   5   2   19.81    2.89
   9  -5   2   20.32    2.79
   9   5   2   21.96    3.26
  10   5   2    4.58    1.35
  10   5   2    6.16    2.16
  10  -5   2    5.04    1.86
  11  -5   2   91.26    6.61
  11   5   2  120.80    8.39
  12  -5   2   50.82    5.11
  12   5   2   57.35    6.11
  13  -5   2    0.76    1.36
  13   5   2    2.76    1.84
  14  -5   2    8.62    2.44
  14  -6  -2   21.99    3.43
  14   6  -2   36.96    5.78
 -14   6   2   22.52    3.55
  13   6  -2   18.45    4.11
 -13   6   2   18.66    3.20
  13  -6  -2   15.30    2.80
  12   6  -2    4.98    2.14
  12  -6  -2    4.66    1.82
 -12   6   2    5.97    1.88
  11  -6  -2   91.79    6.36
 -11   6   2   78.52    5.87
 -10   6   2    1.11    0.93
  10  -6  -2    1.41    0.70
   9  -6  -2    2.77    1.12
  -9   6   2    3.12    1.20
   8  -6  -2    5.53    1.46
  -8   6   2    4.28    1.22
  -7   6   2   87.08    4.92
  -6   6   2  193.31    7.40
  -5   6   2   10.55    1.63
   4  -6  -2    4.01    1.00
  -4   6   2    4.59    1.03
  -3   6   2    0.50    0.43
   3   6  -2    2.67    0.85
   2   6  -2  107.99    5.21
   2  -6  -2  110.11    3.21
  -2   6   2  113.68    4.96
   1   6  -2   20.58    1.94
   1  -6  -2   20.13    1.28
  -1   6   2   21.19    2.04
   0  -6  -2  197.04    5.73
   0   6  -2  217.46    6.24
   0   6   2  183.35    5.35
   0  -6  -2  191.89    6.49
  -1  -6  -2  104.15    4.68
   1   6   2  105.78    4.10
  -1  -6  -2  108.55    4.50
   1  -6   2   98.26    3.68
  -2  -6  -2    0.17    0.50
  -2  -6  -2    1.25    0.75
   2  -6   2    0.14    0.27
  -2   6  -2    0.18    0.48
   2   6   2    0.13    0.44
  -3  -6  -2    3.08    1.25
  -3   6  -2    3.02    0.53
  -3   6  -2    2.35    0.59
   3   6   2    2.34    0.91
  -4   6  -2   46.64    2.45
   4  -6   2   48.54    2.98
  -4   6  -2   50.38    3.36
   4   6   2   49.75    3.65
   5  -6   2  285.66    8.78
   5   6   2  276.64   10.15
  -5   6  -2  269.63    9.45
  -5   6  -2  276.55    7.78
   6  -6   2   57.11    3.77
   6   6   2   50.71    4.25
   7  -6   2    2.33    0.72
   7   6   2    5.02    1.47
   7  -6   2    3.84    0.66
   7   6   2    2.61    1.28
   8  -6   2    5.64    0.92
   8  -6   2    6.10    1.47
   8   6   2    4.10    1.22
   8   6   2    8.20    2.17
   9   6   2   11.18    2.08
   9   6   2   15.72    2.96
   9  -6   2   12.65    2.24
  10   6   2   74.70    5.89
  10  -6   2   78.99    5.76
  10   6   2   86.08    6.87
  11   6   2    5.48    1.77
  11  -6   2    3.21    1.32
  11   6   2    8.87    2.71
  12  -6   2   49.10    4.99
  12   6   2   42.04    5.41
  13  -6   2   19.93    3.32
  13   6   2   31.13    4.71
  14  -6   2    0.88    1.31
  14   7  -2   -0.26    1.27
  13  -7  -2   10.49    2.13
 -13   7   2   11.06    2.54
  13   7  -2   13.33    3.62
 -12   7   2   59.51    5.40
  12  -7  -2   73.55    5.79
  12   7  -2   82.60    8.19
  11   7  -2   13.55    3.61
 -11   7   2   10.84    2.12
  11  -7  -2   13.70    2.39
 -10   7   2   30.68    3.38
  10  -7  -2   39.36    3.70
   9  -7  -2    2.77    0.96
  -9   7   2    1.08    0.69
   8  -7  -2   10.96    1.80
  -8   7   2    8.90    1.71
  -7   7   2   45.12    3.54
   7  -7  -2   44.27    3.23
  -6   7   2    4.36    1.03
   6   7  -2    4.97    0.66
  -5   7   2  148.21    6.27
  -4   7   2   -0.39    0.87
   3   7  -2    3.81    1.08
  -3   7   2    4.99    1.01
   2   7  -2    0.07    0.42
   2  -7  -2    0.49    0.19
  -2   7   2    0.63    0.82
   1  -7  -2  163.60    6.34
   1  -7  -2  178.73    4.84
  -1   7   2  176.28    6.77
   0  -7  -2  120.82    5.24
   0   7   2  118.30    4.02
   0  -7  -2  134.45    4.58
  -1  -7  -2   38.02    2.82
   1  -7   2   36.44    2.23
   1   7   2   32.40    2.26
  -1  -7  -2   36.78    2.61
  -2  -7  -2    9.43    1.59
  -2  -7  -2    8.98    1.47
   2  -7   2    8.81    1.13
   2   7   2   10.15    1.37
  -2   7  -2    9.35    1.34
  -3  -7  -2   15.01    2.19
   3   7   2   14.98    1.89
  -3   7  -2   12.33    0.89
  -3   7  -2   14.10    1.67
  -4   7  -2   90.10    4.54
   4   7   2   96.60    5.30
  -4   7  -2   85.94    3.73
  -4   7  -2   85.26    2.29
  -5   7  -2    4.68    0.48
  -5   7  -2    5.00    0.90
   5  -7   2    6.25    1.21
   5   7   2    7.60    1.60
  -5   7  -2    6.16    1.45
   6  -7   2  120.91    5.56
   6   7   2   92.50    5.97
  -6   7  -2  102.02    4.71
   7  -7   2    7.84    1.51
   7   7   2    5.04    1.63
   8   7   2    1.11    0.86
   8  -7   2    0.36    0.65
   8   7   2    2.36    1.41
   9   7   2   21.29    2.95
   9   7   2   24.42    3.68
   9  -7   2   23.66    2.92
  10   7   2   28.48    3.55
  10   7   2   35.97    4.68
  10  -7   2   33.03    3.73
  11  -7   2   70.72    5.76
  11   7   2   84.45    7.34
  11   7   2   71.98    6.19
  12   7   2    3.59    2.02
  12  -7   2    3.19    1.35
  13   7   2    8.06    2.64
  13  -7   2    3.32    1.48
  14  -7   2    8.21    2.36
  13   8  -2    9.06    3.09
 -13   8   2    6.07    1.95
  12  -8  -2    0.57    0.80
  12   8  -2   -0.10    1.70
 -12   8   2    2.02    1.07
  11   8  -2   77.75    7.91
 -11   8   2   66.09    5.33
  11  -8  -2   78.24    5.45
  10  -8  -2    1.41    0.62
 -10   8   2   -0.19    0.89
  -9   8   2   29.96    3.26
   9  -8  -2   38.36    3.44
  -8   8   2    2.25    1.09
   8  -8  -2    3.14    1.04
   7  -8  -2    8.28    1.33
   7   8  -2    6.53    0.79
  -7   8   2    7.05    1.36
  -6   8   2  134.73    6.27
   6  -8  -2  127.94    4.90
  -5   8   2   82.79    4.75
   5  -8  -2   78.77    3.31
  -4   8   2   22.69    2.33
  -3   8   2   14.88    1.94
   3  -8  -2   11.01    0.75
  -2   8   2   13.59    1.85
   2  -8  -2   11.75    0.87
   1  -8  -2   57.41    3.64
  -1   8   2   60.86    4.03
   1  -8  -2   62.06    2.57
   0  -8  -2  156.93    6.38
   0   8   2  160.27    4.90
   0  -8  -2  175.12    5.52
  -1  -8  -2    4.53    1.25
  -1  -8  -2    3.74    1.20
   1  -8   2    2.07    0.64
   1   8   2    3.35    0.81
  -2   8  -2    4.62    0.96
  -2  -8  -2    2.81    0.97
  -2  -8  -2    6.83    1.35
   2  -8   2    4.98    0.91
   2   8   2    4.04    0.99
  -3  -8  -2   38.05    3.20
   3   8   2   38.30    3.13
  -3   8  -2   34.81    2.60
  -3   8  -2   35.47    1.86
  -4   8  -2    8.95    1.18
  -4   8  -2    8.89    1.50
  -4   8  -2    9.54    0.80
   4   8   2   10.67    1.83
  -5   8  -2  214.17    8.13
  -5   8  -2  201.00    4.77
   5   8   2  216.94    9.01
  -5   8  -2  196.20    6.83
  -6   8  -2    1.57    0.34
  -6   8  -2    1.94    0.60
   6  -8   2    1.95    0.84
   6   8   2    2.11    1.18
  -7   8  -2   15.59    2.02
   7  -8   2   19.07    2.23
   7   8   2    8.64    1.99
   8   8   2   27.21    3.45
   8  -8   2   35.44    3.37
   8   8   2   28.68    3.81
   9   8   2    3.04    1.31
   9  -8   2    1.01    0.84
   9   8   2    4.42    1.80
  10   8   2   74.49    6.06
  10  -8   2   87.86    6.03
  10   8   2   87.73    7.17
  11   8   2    2.17    0.98
  11  -8   2    4.11    1.65
  11   8   2    7.32    2.47
  12   8   2   10.43    2.54
  12  -8   2   12.63    2.67
  12   8   2   12.74    3.04
  13  -8   2   10.27    2.57
  13   9  -2    1.05    1.43
  12   9  -2   23.35    4.52
 -12   9   2   18.94    3.06
  11   9  -2   32.94    5.35
 -11   9   2   24.50    3.22
 -10   9   2  140.95    7.69
  10  -9  -2  160.58    7.36
   9  -9  -2    8.79    1.50
  -9   9   2   11.44    2.11
   8   9  -2   10.75    1.15
   8  -9  -2   14.57    1.80
  -8   9   2   11.90    2.00
  -7   9   2   89.53    5.32
   7  -9  -2   89.57    4.06
  -6   9   2   87.36    5.11
   6  -9  -2   81.58    3.50
   5  -9  -2  101.22    3.36
  -5   9   2  125.76    6.06
  -4   9   2  122.92    6.04
  -3   9   2  111.61    5.68
  -2   9   2  184.55    7.52
   1  -9  -2  168.73    6.99
  -1   9   2  169.36    7.32
   0  -9  -2   61.30    3.97
   0   9   2   61.05    2.78
   1  -9   2  231.05    7.42
  -1  -9  -2  227.71    8.29
   1   9   2  224.42    6.90
  -2   9  -2  106.47    4.69
  -2  -9  -2  108.60    5.61
   2   9   2  113.28    4.98
   2  -9   2  104.48    4.61
  -3  -9  -2   59.72    4.15
  -3   9  -2   54.76    3.41
   3   9   2   60.97    3.96
  -3   9  -2   57.89    2.78
  -4   9  -2  237.20    8.16
   4   9   2  265.87    9.59
  -4   9  -2  249.56    6.25
  -4   9  -2  233.60    7.74
  -5   9  -2   37.98    1.81
  -5   9  -2   33.66    2.69
   5   9   2   40.65    3.95
  -5   9  -2   43.25    3.41
  -6   9  -2   79.14    4.46
   6   9   2   71.81    5.48
  -6   9  -2   84.35    2.95
  -7   9  -2    3.61    0.63
  -7   9  -2    2.47    1.01
   7  -9   2    3.70    1.09
   7   9   2    2.53    0.87
   8  -9   2    1.28    0.87
   8   9   2   -0.45    0.91
   9   9   2  152.05    8.65
   9   9   2  179.77   10.20
   9  -9   2  188.02    8.48
  10   9   2    5.32    1.62
  10  -9   2    6.12    1.67
  10   9   2    7.65    2.43
  11   9   2   17.44    2.96
  11   9   2   28.69    4.41
  11  -9   2   20.79    3.01
  12   9   2    1.64    1.71
  12   9   2    2.25    1.72
  12  -9   2    1.55    1.06
  13  10  -2   -0.12    1.40
  12  10  -2    9.26    3.07
 -12  10   2   10.92    2.33
 -11  10   2   70.43    5.59
  11  10  -2   86.86    8.64
 -10  10   2   88.88    6.10
  -9  10   2  182.44    8.67
   9 -10  -2  204.45    7.65
   8  10  -2    6.19    0.95
  -8  10   2    6.24    1.53
   8 -10  -2    8.17    1.34
  -7  10   2    9.86    1.81
   7 -10  -2   10.79    1.30
   6 -10  -2  101.63    3.43
  -6  10   2  104.12    5.85
  -5  10   2  352.28   11.72
  -4  10   2  408.59   12.75
  -3  10   2    9.74    1.64
  -2  10   2  186.61    7.91
  -1  10   2  393.18   12.55
   1 -10  -2  395.37   12.12
   0 -10   2  371.35   10.67
   0  10   2  344.34    8.48
   0 -10  -2  349.38   11.13
  -1 -10  -2  100.34    5.45
   1 -10   2  102.36    5.01
   1  10   2   98.65    4.27
  -2  10  -2   54.06    3.30
   2 -10   2   58.05    3.51
   2  10   2   56.64    3.55
  -2 -10  -2   55.98    4.08
  -3 -10  -2  404.93   12.96
  -3  10  -2  403.82   11.10
   3  10   2  422.15   12.28
  -3  10  -2  411.84   10.34
  -4 -10  -2  282.97   10.45
  -4  10  -2  262.41    8.70
   4  10   2  293.08   10.40
  -4  10  -2  273.69    7.35
   5  10   2  129.56    7.13
  -5  10  -2  126.04    4.07
  -5  10  -2  114.63    5.65
  -5  10  -2  127.36    6.08
  -6  10  -2    5.70    1.38
  -6  10  -2    4.92    0.67
   6  10   2    3.41    1.52
   7  10   2   19.47    3.03
   8 -10   2  188.64    8.00
   8  10   2  162.25    9.52
   9 -10   2   31.32    3.46
   9  10   2   24.78    3.54
   9  10   2   35.99    4.69
  10  10   2  109.00    7.56
  10 -10   2  120.72    7.14
  10  10   2  120.88    8.75
  11  10   2    4.30    1.60
  11  10   2   11.90    3.03
  12  10   2    0.81    1.52
  12  11  -2    6.69    2.85
 -11  11   2   50.36    4.79
  11  11  -2   72.86    8.15
 -10  11   2  218.14   10.02
  -9  11   2   11.64    2.13
  -8  11   2   40.52    3.91
   7 -11  -2   45.91    2.26
  -7  11   2   46.79    4.11
  -6  11   2   81.47    5.31
  -5  11   2  173.73    7.96
  -4  11   2  267.71   10.19
  -3  11   2  259.66    9.89
  -2  11   2  225.76    9.19
   1 -11  -2  111.16    5.99
   0 -11  -2   61.81    4.31
   0  11   2   56.74    2.73
   0 -11   2   55.84    3.79
  -1 -11  -2  358.67   11.86
   1 -11   2  380.80   11.17
   1  11   2  363.13    9.79
   2 -11   2  209.04    7.59
  -2  11  -2  183.01    6.63
   2  11   2  200.58    7.26
  -2 -11  -2  198.90    8.39
  -3  11  -2  112.69    4.86
  -3  11  -2  106.23    4.92
   3  11   2  117.61    5.88
  -3 -11  -2  116.23    6.38
  -4  11  -2  262.83    8.85
  -4 -11  -2  286.16   10.96
   4  11   2  306.54   10.86
  -4  11  -2  293.30    8.16
  -5  11  -2   73.48    3.23
   5  11   2   73.35    5.32
  -5  11  -2   65.44    4.29
  -6  11  -2   44.54    2.33
   6  11   2   40.41    4.27
   7  11   2   10.58    2.32
   8  11   2    3.02    1.63
   9  11   2  252.18   12.71
   9 -11   2  260.30   10.28
  10  11   2   27.36    3.90
  10  11   2   35.29    4.84
  11  11   2    3.76    1.56
  11  11   2    9.73    2.69
  12  11   2    1.14    1.30
  12  12  -2    1.16    2.01
 -11  12   2   50.43    4.85
  11  12  -2   67.44    7.79
 -10  12   2   34.93    3.86
  -9  12   2   97.15    6.45
  -8  12   2   27.15    3.29
  -7  12   2    4.23    1.18
  -6  12   2   82.28    5.54
  -5  12   2  237.41    9.80
  -4  12   2  163.83    7.92
  -3  12   2    5.31    1.39
  -2  12   2   74.26    5.20
   1 -12  -2  143.85    7.11
   0 -12  -2  169.56    7.75
   0 -12   2  167.98    7.21
   0  12   2  169.60    5.23
  -1 -12  -2   20.30    2.63
   1 -12   2   17.70    2.19
   1  12   2   17.58    1.82
   2  12   2   25.56    2.47
   2 -12   2   24.30    2.61
  -2 -12  -2   26.40    2.97
  -2  12  -2   19.97    1.94
  -3 -12  -2  221.17    9.48
  -3  12  -2  209.65    7.34
   3  12   2  240.67    8.87
  -3  12  -2  223.50    7.85
  -4 -12  -2  125.12    7.11
  -4  12  -2  110.51    5.21
   4  12   2  134.42    6.97
  -4  12  -2  126.99    5.24
  -5  12  -2   94.40    5.27
   5  12   2  111.85    6.80
  -5  12  -2  111.04    4.42
  -5 -12  -2   98.68    6.55
   6  12   2    1.43    0.96
   7  12   2   18.02    3.20
   8  12   2   84.02    6.88
   9  12   2    8.00    2.49
  10  12   2   73.92    6.52
  10  12   2   91.06    7.81
  11  12   2   -0.35    0.92
  11  12   2   -1.18    1.21
  12  13  -2   19.92    4.74
  11  13  -2    1.96    2.18
 -10  13   2   55.65    5.08
  10  13  -2   72.40    7.92
  -9  13   2   -0.94    0.84
  -8  13   2    2.63    1.28
  -7  13   2   26.28    3.26
  -6  13   2    5.51    1.57
  -5  13   2   36.05    3.71
  -4  13   2   28.15    3.29
  -3  13   2   18.54    2.64
  -2  13   2   43.53    4.09
   1 -13  -2   29.75    3.25
  -1 -13   2   26.90    3.02
   0 -13   2   10.10    1.76
   0 -13  -2   12.29    2.13
   0  13   2    9.07    1.07
   1 -13   2   92.50    5.40
   1  13   2   90.02    4.31
  -1 -13  -2   88.34    5.72
   2 -13   2   13.07    2.06
  -2 -13  -2   11.31    2.16
  -2  13  -2    9.93    1.35
   2  13   2   11.39    1.82
  -3  13  -2    1.16    0.58
  -3 -13  -2    2.99    1.27
  -3  13  -2    1.48    0.62
   3  13   2    2.41    1.06
  -4  13  -2   69.04    3.97
  -4 -13  -2   67.66    5.44
   4  13   2   75.25    5.28
  -5 -13  -2    1.07    1.08
  -5  13  -2    0.38    0.37
   5  13   2    1.32    1.29
   6  13   2   46.81    4.77
   7  13   2   -0.84    0.88
   8  13   2    8.05    2.57
   9  13   2   73.96    6.88
  10  13   2    2.29    1.57
  10  13   2    2.37    1.59
  11  13   2   20.73    4.11
  11  14  -2   31.72    5.36
  10  14  -2   -0.63    1.50
 -10  14   2    1.72    0.82
  -9  14   2   10.99    2.24
  -8  14   2    1.77    1.20
  -7  14   2    0.34    0.67
  -6  14   2   44.60    4.37
  -5  14   2   -0.14    0.82
  -4  14   2    7.53    1.88
  -3  14   2    4.23    1.50
  -2  14   2    5.74    1.97
  -1  14   2   11.74    2.21
  -1 -14   2    9.29    1.83
   1 -14  -2   11.07    2.09
   0 -14  -2   47.90    4.15
   0 -14   2   49.33    3.97
   0  14   2   45.98    2.45
   1 -14   2    3.25    0.99
  -1 -14  -2    6.85    1.70
   1  14   2    2.74    0.81
  -2 -14  -2    5.92    1.45
  -2  14  -2    3.07    0.94
   2 -14   2    3.74    1.24
   2  14   2    5.01    1.21
  -3 -14  -2    6.29    1.80
  -3  14  -2    6.89    1.51
   3  14   2    8.52    1.75
  -4  14  -2    5.03    1.29
  -4 -14  -2    5.39    1.81
   4  14   2    3.80    1.69
  -5 -14  -2   79.93    6.25
   5  14   2   84.06    6.05
  -6 -14  -2    1.92    1.21
   6  14   2    6.12    2.07
   7  14   2    6.62    2.12
   8  14   2   16.60    3.14
   9  14   2   11.15    2.91
  10  14   2   36.44    5.21
  11  14   2    6.37    2.67
  11  15  -2    1.52    1.70
  10  15  -2   15.33    3.98
  -9  15   2    1.58    1.18
  -8  15   2   19.51    3.06
  -7  15   2   20.47    3.00
  -6  15   2   15.45    2.67
  -5  15   2   59.22    5.28
  -4  15   2    1.64    1.13
  -3  15   2    6.50    1.84
  -2 -15   2    0.13    0.85
  -2  15   2    3.00    1.55
  -1 -15   2   97.48    6.07
   1 -15  -2  103.90    6.59
  -1  15   2  109.85    7.32
   0 -15   2   55.89    4.47
   0 -15  -2   57.39    4.84
   0  15   2   49.01    2.44
   1 -15   2    2.40    1.21
  -1 -15  -2    1.58    0.87
   1  15   2    2.96    0.75
  -2 -15  -2    5.66    1.65
   2 -15   2    4.70    1.47
   2  15   2    5.07    1.38
  -3  15  -2    8.98    1.70
  -3 -15  -2    6.46    1.80
   3  15   2    6.53    1.52
  -4 -15  -2   53.06    4.97
   4  15   2   55.23    4.64
  -4  15  -2   52.86    3.95
  -5 -15  -2    2.83    1.56
   5  15   2    1.50    1.04
  -6 -15  -2   44.56    4.92
   6  15   2   52.45    5.11
  -7 -15  -2   21.60    3.60
   7  15   2   16.11    3.12
   8  15   2   -0.77    1.42
   9  15   2    9.93    3.00
  10  15   2   14.94    3.55
  11  16  -2   32.59    5.46
  10  16  -2   -0.87    1.28
   9  16  -2   20.56    4.31
  -9  16   2   20.22    3.26
  -8  16   2    2.69    1.36
  -7  16   2  131.88    8.20
  -6  16   2   82.80    6.32
  -5  16   2    1.00    0.80
  -4  16   2   35.76    4.08
  -3  16   2   12.87    2.70
  -2 -16   2   98.66    6.43
  -2  16   2  117.94    7.65
  -1 -16   2    9.95    2.02
   1 -16  -2    9.10    2.14
  -1  16   2    9.76    2.39
   0 -16  -2   63.21    5.18
   0 -16   2   58.43    4.76
  -1 -16  -2  114.19    7.25
   1 -16   2  125.64    7.08
  -2 -16  -2    4.79    1.79
   2 -16   2    1.65    1.03
   2  16   2    0.92    0.68
   3  16   2   30.84    3.23
  -3 -16  -2   28.15    3.70
  -3  16  -2   27.37    3.00
  -4 -16  -2    5.28    1.87
   4  16   2    8.14    1.97
   5  16   2  114.47    7.25
  -5 -16  -2   96.67    7.35
  -6 -16  -2   81.52    6.81
   6  16   2   78.49    6.44
  -7 -16  -2    1.51    1.26
   7  16   2    2.04    1.52
  -8 -16  -2   18.80    3.42
   8  16   2   17.85    3.22
  -9 -16  -2    0.97    1.25
   9  16   2    3.69    2.27
  10  16   2   22.58    4.19
  10  17  -2   19.52    4.25
   9  17  -2    7.49    2.92
  -8  17   2  115.10    7.80
  -7  17   2    6.05    1.72
  -6  17   2   73.13    6.14
  -5  17   2  100.32    7.23
  -4  17   2    0.76    1.05
  -3 -17   2  105.10    7.05
  -3  17   2  117.27    7.84
  -2 -17   2    2.38    1.01
  -2  17   2    3.14    1.57
  -1 -17   2  187.04    9.19
   1 -17  -2  203.25   10.17
  -1  17   2  215.82   11.29
   0 -17   2  169.25    8.83
   0 -17  -2  179.79    9.42
  -1 -17  -2    1.46    1.00
   1 -17   2    3.37    1.45
  -2 -17  -2  123.78    7.94
   2 -17   2  129.31    7.56
  -3  17  -2    2.83    1.11
  -3 -17  -2    4.28    1.70
   4  17   2   91.41    6.16
  -4 -17  -2   92.28    7.10
   5  17   2   40.23    4.37
  -5 -17  -2   30.58    4.15
  -6 -17  -2   30.81    4.31
   6  17   2   36.00    4.41
  -7 -17  -2  107.02    8.30
   7  17   2  100.10    7.76
  -8 -17  -2   -1.34    1.59
   8  17   2   -2.50    1.46
   9  17   2    8.71    2.48
  10  17   2   -0.12    1.17
  10  18  -2    1.65    1.61
   9  18  -2   40.09    5.95
  -8  18   2    1.37    1.31
   8  18  -2    1.79    2.27
  -7  18   2  110.91    7.86
  -6  18   2   36.50    4.56
  -5  18   2    4.82    1.64
  -4 -18   2   87.93    6.78
  -4  18   2  111.59    7.83
  -3 -18   2    2.70    1.30
  -3  18   2    4.74    1.87
  -2 -18   2  144.89    8.40
  -2  18   2  174.92   10.09
  -1 -18   2   11.08    2.35
  -1  18   2   16.07    3.01
   0 -18   2   36.07    4.03
   0 -18  -2   32.30    3.97
   1 -18   2  163.40    8.73
  -1 -18  -2  168.56    9.44
   2 -18   2   -0.48    0.81
  -2 -18  -2    0.95    1.25
  -3 -18  -2   90.14    7.11
  -4 -18  -2    1.32    1.24
  -5 -18  -2   43.68    5.07
  -6 -18  -2   92.68    7.66
  -7 -18  -2    4.07    1.73
   7  18   2    5.16    1.91
   8  18   2   24.15    4.01
   9  18   2    4.79    2.47
   9  19  -2    5.19    2.41
   8  19  -2   56.83    6.92
  -7  19   2    1.80    1.28
   7  19  -2    4.16    2.38
  -6  19   2   22.15    3.68
  -5  19   2   23.08    3.54
  -5 -19   2   18.78    3.40
  -4  19   2    0.77    1.18
  -4 -19   2    0.22    0.76
  -3 -19   2   97.87    7.14
  -3  19   2  109.63    8.03
  -2 -19   2    1.40    1.25
  -2  19   2    1.31    1.23
  -1 -19   2   34.15    3.94
  -1  19   2   41.44    5.16
   0 -19  -2   18.01    3.07
   0 -19   2   22.66    3.36
   1 -19   2    7.03    1.98
  -1 -19  -2    9.03    2.38
  -2 -19  -2   99.89    7.52
  -3 -19  -2   10.32    2.57
  -4 -19  -2   26.39    4.00
  -5 -19  -2   11.39    2.95
  -6 -19  -2    8.76    2.53
  -6 -20   2    1.18    1.10
  -6  20   2    1.20    1.28
  -5  20   2    0.60    1.00
  -5 -20   2    1.75    1.11
  -4 -20   2   36.93    4.66
  -4  20   2   46.44    5.40
  -3 -20   2    3.45    1.64
  -3  20   2    3.02    1.59
  -2 -20   2   22.44    3.41
  -2  20   2   29.51    4.24
  -1 -20   2    1.31    1.08
  -1  20   2    2.39    1.65
   0 -20   2    1.11    1.06
   0 -20  -2    0.63    0.97
   0  20   2   -0.04    1.31
   1 -20   2   14.16    2.69
  -1 -20  -2   12.48    2.58
  -2 -20  -2   14.71    2.86
  -3 -20  -2   38.87    4.85
  -4 -20  -2   -0.36    0.78
  -5 -20  -2   -0.23    0.93
  -5 -21   2    0.74    0.81
  -5  21   2    1.74    1.77
  -4 -21   2    0.34    0.95
  -4  21   2   -0.11    0.98
  -3 -21   2   41.35    4.79
  -3  21   2   44.25    5.47
  -2  21   2   -0.37    1.06
  -2 -21   2    0.05    1.09
  -1  21   2    8.93    2.56
  -1 -21   2    3.30    1.56
   0  21   2    6.55    2.53
   0 -21   2    5.46    1.76
   0 -21  -2    6.99    1.87
  -1 -21  -2    7.64    2.30
   1 -21   2    7.74    2.32
  -2 -21  -2   40.93    5.19
  -3 -21  -2   12.07    2.98
  -5  22   2    1.03    1.20
  -4  22   2   36.60    5.04
  -3 -22   2    2.21    1.75
  -3  22   2    0.63    1.13
  -2  22   2   12.96    3.03
  -2 -22   2   11.58    2.77
  -1 -22   2   -0.42    1.28
  -1  22   2    2.26    1.89
   0 -22   2    3.00    1.51
   0  22   2   -0.83    1.44
   1 -22   2    5.81    1.67
  -4  23   2    0.60    1.59
  -3  23   2   62.91    6.71
  -2  23   2    5.20    2.04
  -1  23   2    9.53    2.94
  -1 -23   2    9.38    2.50
   0 -23   2    3.30    1.73
  15   0  -3   -2.32    1.61
  14   0  -3    1.09    1.24
  13   0  -3    1.19    1.59
 -12   0   3   -1.47    1.29
 -11   0   3   -0.88    0.89
 -10   0   3    0.90    0.73
  -9   0   3    0.53    0.43
  -9   0   3   -0.55    0.91
  -8   0   3    0.07    0.52
  -7   0   3    0.17    0.62
  -6   0   3   -0.39    0.49
  -5   0   3    0.16    0.52
  -4   0   3    0.37    0.47
  -3   0   3    0.63    0.48
  -2   0   3    0.04    0.40
  -1   0   3    1.17    0.56
   1   0  -3    0.24    0.62
   0   0   3   -0.07    0.29
   0   0  -3    0.69    0.55
   1   0   3    0.06    0.25
   1   0   3   -0.40    0.28
   2   0   3    0.77    0.81
   2   0   3    0.70    0.46
   2   0   3   -0.90    0.64
  -3   0  -3   -0.23    0.27
   3   0   3   -0.56    0.58
   3   0   3   -0.06    0.75
   4   0   3    1.03    1.00
   4   0   3    0.52    0.56
   5   0   3   -1.25    0.92
   5   0   3   -0.36    0.72
   6   0   3    0.28    0.79
   6   0   3   -0.93    0.59
   7   0   3   -0.26    0.29
   7   0   3    0.20    0.73
   7   0   3   -1.55    1.21
   8   0   3   -0.15    0.41
   8   0   3   -0.13    0.79
   9   0   3    0.32    0.83
  10   0   3    0.29    0.69
  11   0   3    0.62    0.88
  12   0   3    3.98    1.70
  13   0   3   -0.94    1.38
  15  -1  -3    0.63    1.55
  15   1  -3   -0.67    1.41
  14  -1  -3    2.21    1.90
  14   1  -3   -1.18    1.66
  13   1  -3    0.85    2.35
 -13   1   3    0.21    0.99
  13  -1  -3    1.07    1.87
 -12   1   3    1.86    0.77
  12  -1  -3    4.97    2.37
 -11  -1   3   13.78    2.65
 -11   1   3   17.01    2.98
 -10  -1   3   25.11    3.25
 -10   1   3   24.52    3.26
  -9  -1   3   13.93    1.50
  -9   1   3   16.04    2.38
  -9  -1   3   14.05    2.21
  -8  -1   3    4.11    0.75
  -8  -1   3    5.30    1.45
  -8   1   3    6.00    1.51
  -7  -1   3   -0.42    0.52
  -7   1   3    0.35    0.73
  -6  -1   3   26.47    2.66
  -6   1   3   26.95    2.65
  -5  -1   3   34.05    2.84
  -5   1   3   29.89    2.60
  -4  -1   3    3.25    1.03
  -4   1   3    1.40    0.74
  -3   1   3  112.00    4.72
  -3  -1   3  110.11    4.66
  -2  -1   3   73.78    3.42
  -2   1   3   69.53    3.45
  -1   1   3    5.50    0.98
  -1  -1   3    5.44    0.96
   1   1  -3    4.68    0.84
   0   1  -3    7.93    1.01
   0  -1  -3    9.80    1.26
   0  -1   3   12.31    1.45
   0   1   3    7.31    0.93
   0  -1   3    8.24    0.95
   0   1   3    7.37    1.14
   1   1   3    0.44    0.38
   1  -1   3    0.33    0.18
  -1   1  -3    1.14    0.43
   1   1   3    0.72    0.41
   1  -1   3    1.04    0.77
   1  -1   3    0.24    0.31
  -2  -1  -3  211.86    5.57
   2  -1   3  237.11    7.83
   2  -1   3  221.46    7.06
   2   1   3  216.89    6.97
   2  -1   3  209.29    5.55
   2   1   3  210.62    6.26
   3  -1   3   19.39    2.25
  -3   1  -3   15.72    0.88
   3  -1   3   18.03    1.29
  -3  -1  -3   17.29    1.34
   3  -1   3   16.95    1.79
   3   1   3   15.49    1.93
   3   1   3   19.28    2.16
   4   1   3    5.80    1.32
   4  -1   3    7.78    1.54
   4  -1   3    8.52    1.49
   4   1   3    6.41    1.24
   5   1   3    5.49    1.35
   5  -1   3    6.61    1.47
   5   1   3    3.78    1.13
   5  -1   3    6.83    1.59
   6  -1   3    1.06    0.55
   6  -1   3    1.48    0.80
   6   1   3    1.84    0.88
   6  -1   3    0.95    0.61
   6   1   3    0.09    0.60
   7  -1   3   10.73    1.42
   7   1   3   10.27    2.15
   7  -1   3   12.30    2.03
   7   1   3   11.80    2.22
   8   1   3    0.90    1.08
   8  -1   3   -0.51    0.36
   8  -1   3    0.70    0.68
   8   1   3   -0.67    0.97
   9  -1   3    0.71    1.22
   9   1   3   -0.86    0.89
  10  -1   3   22.41    3.23
  10   1   3   19.42    3.11
  11  -1   3   10.95    2.65
  11   1   3   11.76    2.51
  12  -1   3    1.11    1.42
  12   1   3    2.27    1.59
  13  -1   3    1.33    1.61
  13   1   3    2.02    1.83
  15  -2  -3    4.51    1.98
  14  -2  -3    1.55    1.68
  14   2  -3    1.57    1.93
 -13   2   3    0.04    0.99
  13   2  -3    0.93    1.91
  13  -2  -3   -0.41    1.01
 -12   2   3   57.67    5.50
  12  -2  -3   67.24    6.57
 -11   2   3   -0.33    0.92
 -10  -2   3    1.06    1.09
 -10   2   3   -0.20    0.71
  -9  -2   3   51.31    4.48
  -9   2   3   49.28    4.29
  -8  -2   3   42.71    3.93
  -8   2   3   43.97    3.77
  -7  -2   3   21.13    2.64
  -7   2   3   19.95    2.37
  -7  -2   3   19.57    1.26
  -6  -2   3   23.71    1.19
  -6  -2   3   26.37    2.78
  -6   2   3   29.21    2.68
  -5   2   3   24.05    2.32
  -5  -2   3   19.11    2.26
  -4  -2   3  353.01   10.18
  -4   2   3  338.28    9.86
  -3  -2   3  116.25    4.91
  -3   2   3  125.60    5.04
  -2  -2   3   12.64    1.20
  -2   2   3   10.93    1.40
   2   2  -3    9.64    1.34
  -2  -2   3   11.84    1.40
  -1  -2   3   10.28    1.16
   1   2  -3    9.42    1.20
  -1  -2   3    9.81    1.13
  -1   2   3    9.11    1.19
   0  -2   3    1.09    0.55
   0   2   3    1.53    0.53
   0   2  -3    2.01    0.52
   0   2   3    2.04    0.71
   0  -2   3    2.21    0.52
   1   2   3  126.83    4.88
   1  -2   3  126.34    3.84
   1   2   3  131.48    4.54
   1   2   3  116.58    4.64
  -1   2  -3  120.87    4.00
   1  -2   3  139.63    5.55
   2  -2   3   25.83    2.55
   2   2   3   22.02    2.04
  -2  -2  -3   21.54    1.63
   2  -2   3   22.62    1.27
   3   2   3  116.85    5.16
   3  -2   3  120.03    5.92
   3  -2   3  112.18    4.97
   3  -2   3  108.18    3.17
  -3  -2  -3  111.55    4.14
   4  -2   3  106.02    5.85
   4   2   3  108.93    5.67
   4  -2   3  108.10    5.09
   4   2   3  108.52    5.29
   4  -2   3   92.40    3.02
   5   2   3  121.34    6.07
   5  -2   3  115.35    3.89
   5   2   3  129.70    6.47
   5  -2   3  131.72    6.14
   6   2   3   10.69    1.93
   6  -2   3    9.79    1.09
   6  -2   3    8.37    1.76
   6   2   3    9.85    1.88
   7  -2   3    2.75    0.66
   7   2   3    3.06    1.21
   7  -2   3    2.59    0.99
   7   2   3    1.65    0.64
   8   2   3   57.56    5.06
   8  -2   3   53.51    3.05
   8  -2   3   62.10    4.84
   8   2   3   55.21    4.72
   9   2   3   28.96    3.76
   9  -2   3   30.39    3.63
   9   2   3   25.37    3.47
  10  -2   3   31.53    3.93
  10   2   3   28.71    3.80
  11  -2   3    9.13    2.31
  11   2   3   14.78    2.96
  12  -2   3    0.19    1.33
  12   2   3   -0.41    1.20
  13  -2   3   -0.63    1.20
  13   2   3    3.14    1.73
  15  -3  -3    0.01    1.40
  14   3  -3   14.98    3.97
 -14   3   3   16.50    3.23
  14  -3  -3   21.49    3.93
 -13   3   3    2.72    1.53
  13  -3  -3    2.44    1.63
  13   3  -3   -1.62    1.85
  12  -3  -3   14.31    3.09
 -12   3   3    9.16    2.42
 -11   3   3   51.91    4.97
 -10   3   3    5.31    1.49
  -9  -3   3   80.34    5.72
  -9   3   3   77.93    5.32
  -8  -3   3    0.13    0.65
  -8   3   3    0.99    0.73
  -7  -3   3   38.98    3.64
  -7   3   3   34.85    3.19
  -6  -3   3   21.91    2.65
  -6   3   3   17.71    2.20
  -5  -3   3    1.07    0.90
  -5   3   3   -0.35    0.44
  -4  -3   3   40.42    3.10
  -4   3   3   39.35    2.90
   3   3  -3  234.20    7.89
  -3  -3   3  248.50    7.94
  -3   3   3  250.75    7.85
  -2  -3   3   16.91    1.34
  -2  -3   3   20.29    1.86
   2   3  -3   18.28    1.82
  -2   3   3   19.85    1.95
  -1  -3   3   43.32    2.60
   1  -3  -3   50.82    2.95
  -1   3   3   51.79    2.97
   1   3  -3   46.12    2.62
  -1  -3   3   50.19    2.66
   0  -3   3   48.16    2.36
   0   3   3   50.36    2.87
   0  -3  -3   52.12    3.03
   0   3  -3   48.70    2.38
   0  -3   3   46.99    2.92
   0   3   3   44.40    2.89
  -1   3  -3   10.77    1.66
   1   3   3   11.34    1.45
  -1  -3  -3    9.72    1.22
   1  -3   3   11.26    0.94
   1  -3   3   10.28    1.56
   1   3   3   10.86    1.33
  -1   3  -3   10.57    0.95
   1   3   3   10.74    1.42
  -1  -3  -3   10.12    1.43
   2  -3   3  236.99    5.21
  -2  -3  -3  237.97    6.88
   2   3   3  248.29    7.76
  -3  -3  -3   14.54    1.58
   3  -3   3   15.37    1.72
   3   3   3   16.35    1.92
  -3   3  -3   14.24    1.84
   4   3   3   58.39    3.89
   4  -3   3   61.52    3.74
   5   3   3    2.19    1.01
   5  -3   3    1.12    0.29
   5  -3   3    2.42    0.92
   5   3   3    1.87    0.96
   6  -3   3    5.25    1.53
   6   3   3    4.62    1.35
   6  -3   3    3.80    0.60
   6   3   3    4.01    1.20
   7   3   3   29.69    3.40
   7  -3   3   28.69    1.80
   7   3   3   27.24    3.29
   7  -3   3   32.85    3.31
   8   3   3   16.82    2.55
   8  -3   3   13.33    2.17
   8   3   3   13.00    2.46
   9   3   3    1.22    0.91
   9  -3   3    1.89    1.33
   9   3   3    1.57    1.07
  10   3   3   28.87    4.06
  10  -3   3   26.12    3.50
  10   3   3   21.56    3.40
  11  -3   3   17.35    3.13
  11   3   3   21.38    3.61
  12  -3   3    0.85    0.97
  12   3   3   -0.18    1.28
  13  -3   3   17.26    3.21
  13   3   3   18.96    3.58
  15  -4  -3   12.84    3.10
 -14   4   3   12.70    2.90
  14  -4  -3   14.27    3.26
  14   4  -3   17.02    4.23
  13   4  -3    1.76    2.33
 -13   4   3    0.97    0.99
  13  -4  -3    0.96    0.88
 -12   4   3   10.89    2.33
  12  -4  -3    6.78    2.24
 -11   4   3    9.00    2.05
  11  -4  -3   10.82    2.59
 -10   4   3   14.46    2.38
  -9   4   3   -0.43    0.87
  -8   4   3   28.26    3.00
  -7  -4   3    1.95    0.98
  -7   4   3    1.54    0.75
  -6  -4   3  169.73    7.56
  -6   4   3  159.67    6.88
  -5  -4   3    1.00    0.47
  -5   4   3    2.22    0.96
  -4   4   3   10.50    1.56
  -4  -4   3    8.46    1.38
  -3  -4   3   56.44    3.60
   3   4  -3   46.67    3.37
  -3   4   3   54.79    3.36
  -2  -4   3   11.96    1.56
   2   4  -3   13.24    1.64
  -2   4   3   20.63    1.98
  -1  -4   3  188.35    6.18
   1   4  -3  220.94    6.41
   1  -4  -3  184.93    6.20
   1   4  -3  204.69    6.32
  -1   4   3  209.34    6.88
  -1   4   3  215.14    7.25
   0   4   3   62.95    3.50
   0  -4   3   53.34    2.67
   0   4  -3   61.19    3.43
   0  -4  -3   56.40    3.19
   0   4  -3   58.39    2.71
   0   4   3   59.57    3.38
  -1   4  -3   11.36    1.56
   1  -4   3   12.46    1.03
  -1  -4  -3   12.46    1.43
  -1   4  -3   12.07    1.00
   1   4   3   13.02    1.67
   1   4   3   14.22    1.68
   1   4   3   12.58    1.49
  -1  -4  -3   14.05    1.61
  -2  -4  -3   19.51    1.89
  -2   4  -3   23.08    2.30
  -2  -4  -3   20.20    2.14
   2   4   3   20.82    2.05
  -3  -4  -3   21.26    2.07
   3   4   3   23.50    2.28
   4   4   3   25.54    2.55
   4  -4   3   24.36    2.34
   5  -4   3  132.96    6.07
   5   4   3  123.79    6.34
   6   4   3    2.72    1.39
   6  -4   3    1.29    0.55
   6   4   3    1.62    1.02
   7  -4   3   74.18    4.93
   7   4   3   56.89    4.72
   7  -4   3   53.85    2.24
   7   4   3   64.24    4.99
   8   4   3    6.55    1.81
   8  -4   3    4.82    1.47
   8   4   3    3.43    1.48
   9   4   3   -0.03    0.80
   9   4   3    1.27    1.09
   9  -4   3    1.08    0.88
  10   4   3   35.42    4.31
  10  -4   3   29.82    3.68
  10   4   3   32.04    4.13
  11  -4   3    2.57    1.32
  11   4   3    5.33    1.96
  12  -4   3    8.10    2.23
  12   4   3   13.08    2.67
  13  -4   3    0.92    0.85
  13   4   3    3.84    2.31
 -15   5   3   14.20    3.20
  14  -5  -3   21.92    3.69
 -14   5   3   18.25    3.51
  14   5  -3   21.11    4.67
  13   5  -3   -1.01    1.76
 -13   5   3    2.26    1.27
  13  -5  -3    3.39    1.80
 -12   5   3    9.62    2.21
  12  -5  -3   12.50    2.79
 -11   5   3    0.57    0.87
  11  -5  -3    2.18    1.33
 -10   5   3   37.02    3.83
  -9   5   3   50.35    4.24
  -8   5   3   -0.29    0.70
  -7   5   3   49.21    3.89
  -6   5   3    3.44    1.27
  -5   5   3  104.87    5.29
  -4  -5   3   26.10    2.58
  -4   5   3   25.70    2.43
  -3  -5   3    7.33    1.38
   3   5  -3    6.13    1.36
  -3   5   3    8.64    1.42
   2   5  -3  150.41    4.76
  -2  -5   3  141.69    5.55
   2   5  -3  134.17    5.63
  -2   5   3  162.84    6.18
   1   5  -3   45.14    2.72
   1  -5  -3   45.49    2.71
   1   5  -3   49.14    2.88
  -1   5   3   48.22    3.10
   0   5  -3  200.59    7.22
   0  -5  -3  213.89    6.85
   0   5   3  239.25    7.75
   0   5  -3  210.25    6.04
   0   5   3  216.28    7.41
  -1   5  -3    6.95    1.32
  -1  -5  -3    7.70    1.23
  -1   5  -3    8.98    1.49
   1   5   3    9.55    1.48
   1   5   3    8.91    1.21
  -1  -5  -3    9.24    1.47
  -1   5  -3    8.39    0.81
  -2   5  -3   12.32    1.96
  -2  -5  -3   15.96    1.79
  -2   5  -3   13.28    1.84
   2   5   3   10.47    1.47
  -2  -5  -3   14.08    1.89
   3   5   3  127.31    5.71
  -3  -5  -3  131.22    5.44
   4   5   3   44.95    3.51
  -4  -5  -3   42.41    3.10
   4  -5   3   48.16    3.29
   5  -5   3   49.44    3.55
   5   5   3   46.37    3.80
  -5   5  -3   44.32    1.90
   6  -5   3    3.48    1.10
   6   5   3    2.64    1.10
   7   5   3    8.48    2.01
   7  -5   3    5.09    1.21
   7   5   3    5.22    1.71
   8   5   3   87.20    6.14
   8  -5   3   90.77    5.83
   8   5   3   70.78    5.56
   9   5   3   10.61    2.52
   9  -5   3    9.71    2.09
   9   5   3    4.61    1.13
  10   5   3    1.43    1.28
  10  -5   3   -0.26    0.78
  10   5   3    1.58    1.35
  11   5   3    2.20    1.56
  11  -5   3   -0.43    0.87
  11   5   3    0.97    1.16
  12  -5   3    1.38    1.44
  12   5   3    2.29    1.50
  13  -5   3   27.98    3.96
 -15   6   3    1.76    1.72
 -14   6   3    2.02    1.21
  14   6  -3    4.90    2.74
  13  -6  -3   18.53    3.21
 -13   6   3   11.48    2.53
  13   6  -3   18.64    4.55
  12  -6  -3    1.60    1.20
 -12   6   3    0.85    1.08
  11  -6  -3   46.63    4.47
 -11   6   3   41.24    4.38
  10  -6  -3   22.40    3.17
 -10   6   3   18.40    2.63
  -9   6   3   23.29    2.99
  -8   6   3    3.20    1.09
  -7   6   3    5.03    1.32
  -6   6   3   81.10    4.86
  -5   6   3  123.06    5.89
  -4   6   3   35.54    2.96
   3   6  -3    3.98    0.60
   3   6  -3    3.18    1.02
  -3   6   3    4.01    1.07
   2   6  -3    8.07    1.43
   2  -6  -3    7.43    1.00
  -2   6   3    9.35    1.51
   2   6  -3    6.64    1.01
   1   6  -3  121.67    5.26
   1   6  -3  128.86    5.21
   1  -6  -3  127.60    4.75
  -1   6   3  137.39    5.84
   0   6  -3   83.29    4.66
   0  -6  -3   93.60    4.60
   0   6   3  105.07    5.10
   0  -6  -3   96.98    4.26
   0   6  -3   95.25    3.89
   0   6   3   94.96    5.06
  -1  -6  -3    1.42    0.73
  -1   6  -3    1.42    0.46
  -1   6  -3    1.77    0.50
   1   6   3    2.31    0.62
  -1  -6  -3    1.62    0.79
  -2  -6  -3    6.98    1.32
  -2  -6  -3    7.82    1.27
  -2   6  -3    5.73    0.51
  -2   6  -3    8.43    1.40
   2   6   3    6.50    1.21
  -3  -6  -3    3.57    0.89
   3   6   3    3.79    1.04
  -4  -6  -3  138.51    6.29
   4   6   3  151.88    6.79
  -5   6  -3    7.72    0.83
   5  -6   3    7.53    1.40
   5   6   3    6.61    1.47
  -6   6  -3    4.69    0.76
   6  -6   3    3.69    1.02
   6   6   3    6.25    1.50
   7   6   3   10.05    2.15
   7  -6   3    8.92    1.76
  -7   6  -3    9.48    1.20
   7   6   3    8.03    1.94
   8   6   3    4.30    1.59
   8  -6   3    4.89    1.49
   8   6   3    1.88    0.91
   9   6   3   46.48    4.59
   9  -6   3   52.97    4.61
   9   6   3   27.91    3.84
  10   6   3    4.33    1.55
  10   6   3    5.37    1.88
  10  -6   3    3.99    1.63
  11   6   3    1.63    1.31
  11  -6   3    0.90    0.93
  11   6   3    4.43    1.78
  12  -6   3    8.49    2.18
  12   6   3   11.67    3.07
  13  -6   3   -0.62    1.18
  14  -6   3   -0.66    0.87
 -14   7   3    1.97    1.59
  13   7  -3   16.45    4.21
 -13   7   3   15.63    3.09
 -12   7   3    6.86    2.01
  12  -7  -3    8.30    2.24
  11  -7  -3    4.48    1.60
 -11   7   3    3.05    1.35
 -10   7   3   45.04    4.26
  10  -7  -3   49.80    4.33
  -9   7   3   -1.46    1.14
  -8   7   3   50.56    4.17
  -7   7   3    1.71    0.86
  -6   7   3    4.77    1.30
  -5   7   3   21.79    2.47
  -4   7   3   60.82    4.06
   4   7  -3   58.57    2.38
  -3   7   3    6.22    1.31
   2   7  -3   48.23    3.73
   2  -7  -3   63.63    2.97
  -2   7   3   67.14    4.12
   1   7  -3   10.05    1.52
  -1   7   3    9.38    1.49
   1  -7  -3   10.02    1.26
   0  -7  -3   16.97    1.95
   0   7  -3   17.02    1.70
   0  -7  -3   18.87    1.88
   0   7   3   17.72    1.64
   0   7   3   20.39    2.27
  -1   7  -3  145.82    4.69
   1  -7   3  134.86    4.61
   1   7   3  134.56    5.39
  -1  -7  -3  146.08    5.99
  -1  -7  -3  147.69    6.06
  -2  -7  -3    0.62    0.44
   2  -7   3    0.29    0.32
  -2  -7  -3    0.27    0.43
  -2   7  -3    0.32    0.23
  -2   7  -3   -0.02    0.58
   2   7   3   -0.39    0.59
  -3  -7  -3   96.11    5.08
   3   7   3   97.05    5.04
  -4  -7  -3    0.83    0.76
   4   7   3    0.77    0.83
   5   7   3   17.27    2.51
  -6   7  -3   19.63    1.60
   6  -7   3   23.60    2.51
   6   7   3   23.82    3.03
   7  -7   3   20.34    2.51
   7   7   3   19.48    2.96
   8  -7   3    1.92    0.89
   8   7   3    5.25    2.06
   8   7   3   -1.64    1.37
   9   7   3   23.37    3.35
   9  -7   3   22.42    3.04
   9   7   3   15.16    2.72
  10   7   3    0.66    1.06
  10  -7   3    1.07    0.81
  10   7   3    0.10    0.91
  11  -7   3    6.29    1.86
  11   7   3    5.62    1.93
  11   7   3    6.30    2.06
  12   7   3   16.81    3.29
  12  -7   3   12.90    2.73
  12   7   3   17.79    3.54
  13  -7   3    0.26    1.09
  14  -7   3   13.00    3.19
 -14   8   3    7.83    2.16
  13   8  -3   20.12    5.26
 -13   8   3   18.11    3.30
 -12   8   3    4.41    1.58
  11  -8  -3    2.61    1.20
 -11   8   3    3.64    1.57
  10  -8  -3    5.32    1.58
 -10   8   3    1.43    1.08
   9  -8  -3    5.71    1.39
  -9   8   3    5.52    1.52
  -8   8   3    0.31    0.85
  -7   8   3  144.88    7.19
  -6   8   3   24.99    2.79
   5   8  -3   49.21    1.93
  -5   8   3   56.72    4.11
  -4   8   3    1.26    0.84
  -3   8   3   13.54    1.94
   3  -8  -3   15.23    1.30
   2   8  -3  148.95    7.12
   2  -8  -3  178.41    5.40
  -2   8   3  178.38    7.34
   1   8  -3   22.06    2.40
   1  -8  -3   32.26    2.22
  -1   8   3   33.73    3.07
   0  -8  -3   53.31    3.67
   0   8  -3   45.94    3.11
   0   8   3   48.45    2.83
   0  -8  -3   54.14    3.24
   0   8   3   55.64    3.94
  -1   8  -3   96.23    4.04
   1   8   3   85.52    4.16
  -1  -8  -3   88.73    4.95
  -1  -8  -3   90.25    4.72
   1  -8   3   88.23    3.83
  -2  -8  -3   22.27    2.38
  -2  -8  -3   25.02    2.71
  -2   8  -3   21.35    1.48
   2  -8   3   21.52    1.69
   2   8   3   24.17    2.30
  -3  -8  -3    3.43    1.02
   3   8   3    5.17    1.19
  -4  -8  -3   22.06    2.58
   4   8   3   22.77    2.67
   5   8   3   -0.06    0.83
  -5  -8  -3    0.61    0.68
  -6   8  -3  141.78    5.06
   6   8   3  156.46    8.04
   7  -8   3   36.46    3.56
   7   8   3   30.71    3.66
   8   8   3    5.51    1.86
   8  -8   3    7.17    1.50
   8   8   3    4.40    1.53
   9   8   3    4.93    1.49
   9  -8   3    3.77    1.56
   9   8   3    2.69    1.25
  10   8   3    3.93    1.79
  10  -8   3    2.19    1.15
  10   8   3    3.64    1.66
  11   8   3   38.80    4.91
  11  -8   3   33.44    4.19
  11   8   3   35.32    4.85
  12   8   3    0.01    0.98
  12  -8   3   -1.52    1.15
  12   8   3   -2.34    1.51
  13  -8   3   -0.48    0.86
  13   9  -3   17.91    4.69
 -13   9   3   18.48    3.40
 -12   9   3   14.31    2.68
 -11   9   3    0.89    0.75
  10  -9  -3    7.73    1.76
 -10   9   3    6.27    1.97
   9  -9  -3    2.39    1.17
  -9   9   3    1.42    0.95
  -8   9   3   69.21    5.19
   8  -9  -3   80.62    4.54
  -7   9   3   48.98    4.12
  -6   9   3    0.68    0.73
  -5   9   3   24.68    2.79
   4  -9  -3   31.15    1.77
  -4   9   3   39.95    3.48
   3  -9  -3   50.27    2.33
  -3   9   3   49.75    3.86
  -2   9   3    0.64    0.52
   2  -9  -3   -0.15    0.42
   1   9  -3   58.65    4.18
   1  -9  -3   72.57    3.50
  -1   9   3   64.56    4.49
   0   9   3  161.83    7.40
   0   9  -3  124.36    6.00
   0  -9  -3  173.64    6.24
   0  -9  -3  148.17    6.74
   0   9   3  145.24    5.34
  -1  -9  -3  118.51    5.99
   1  -9   3  119.34    4.86
  -1   9  -3  118.75    5.21
   1   9   3  117.52    5.02
  -1  -9  -3  131.05    5.92
   2  -9   3    3.84    0.78
  -2   9  -3    5.45    0.89
  -2  -9  -3    4.36    1.20
   2   9   3    3.30    0.88
  -3  -9  -3    0.90    0.62
  -3   9  -3    0.51    0.27
   3   9   3    0.70    0.70
  -3   9  -3    0.51    0.20
  -4  -9  -3   10.75    1.95
   4   9   3   13.80    2.14
  -5  -9  -3   73.09    5.13
   5   9   3   75.20    5.23
   6   9   3   24.51    3.12
   7   9   3   22.84    3.27
   8  -9   3   11.59    2.23
   8   9   3    5.82    1.68
   9  -9   3   14.74    2.41
   9   9   3   16.00    3.09
   9   9   3   10.33    2.50
  10   9   3    1.79    1.30
  10  -9   3    1.49    1.10
  10   9   3    1.29    1.29
  11   9   3    0.42    0.93
  11  -9   3    0.38    0.98
  11   9   3   -0.14    0.97
  12   9   3   18.34    3.63
  12  -9   3   13.38    2.65
  12   9   3   18.23    3.85
 -13  10   3    3.25    1.58
 -12  10   3   -0.33    0.75
 -11  10   3    0.60    0.89
 -10  10   3    0.57    0.71
  -9  10   3    1.09    1.09
   8 -10  -3    0.60    0.65
  -8  10   3   -1.02    0.72
  -7  10   3   29.76    3.30
   7 -10  -3   32.38    2.34
  -6  10   3    9.13    1.83
  -5  10   3    1.92    1.08
   5 -10  -3    2.56    0.49
   4 -10  -3    0.22    0.17
  -4  10   3    2.04    1.16
  -3  10   3    0.98    0.93
   3 -10  -3    1.83    0.49
   2 -10  -3   24.63    1.74
  -2  10   3   24.51    2.88
   1  10  -3   12.11    1.95
  -1  10   3   15.30    2.27
   1 -10  -3   15.66    1.66
   0  10  -3    4.20    1.00
   0 -10  -3    5.84    1.30
   0 -10  -3    5.52    1.47
   0  10   3    5.17    1.03
  -1 -10  -3   11.38    1.75
   1 -10   3   12.68    1.57
  -1 -10  -3   12.82    1.88
   1  10   3   14.44    1.75
  -1  10  -3   10.60    1.60
  -2  10  -3    8.64    1.19
   2 -10   3    7.89    1.29
  -2 -10  -3    8.30    1.53
   2  10   3    7.31    1.33
  -3 -10  -3   -0.07    0.56
  -3  10  -3    0.74    0.41
  -3  10  -3    0.18    0.21
   3  10   3   -0.35    0.67
  -4 -10  -3    0.76    0.70
   4  10   3    2.69    1.14
  -5 -10  -3    2.04    0.79
   5  10   3    3.05    1.37
  -6 -10  -3   26.24    3.34
   6  10   3   25.51    3.28
   7  10   3    6.83    1.88
   8  10   3   -0.05    1.08
   9  10   3    2.15    1.50
   9 -10   3    0.46    0.75
   9  10   3   -0.38    0.89
  10  10   3    0.63    0.83
  10 -10   3    0.47    1.03
  11  10   3    5.44    1.90
  11 -10   3    7.53    1.98
  11  10   3    3.82    1.84
  12  10   3    2.14    1.84
 -12  11   3    0.83    0.88
 -11  11   3    0.29    0.73
 -10  11   3    0.93    0.86
  -9  11   3   -1.57    1.14
  -8  11   3   11.80    2.33
  -7  11   3    1.79    1.18
  -6  11   3    6.73    1.55
   6 -11  -3    3.91    0.56
  -5  11   3    3.26    1.10
  -4  11   3    0.47    0.91
  -3  11   3   15.88    2.43
   3 -11  -3    8.62    0.78
   2 -11  -3    0.13    0.32
  -2  11   3   -0.23    0.62
   1 -11  -3    8.42    1.23
  -1  11   3    4.82    1.41
   0  11  -3    4.04    1.04
   0 -11  -3    5.67    1.30
   0 -11  -3    5.19    1.34
   0 -11   3    4.02    1.11
   0  11   3    4.85    1.06
  -1  11  -3    2.02    0.66
  -1 -11  -3    2.65    0.79
   1 -11   3    4.30    0.97
   1  11   3    4.14    0.94
  -2  11  -3    6.95    1.19
  -2 -11  -3    9.01    1.76
   2 -11   3    9.30    1.44
   2  11   3    8.71    1.42
  -3  11  -3   -0.35    0.30
  -3  11  -3    0.64    0.35
  -3 -11  -3   -0.90    0.91
   3  11   3    0.04    0.78
  -4  11  -3    1.35    0.39
  -4 -11  -3    2.51    1.03
  -4  11  -3    1.28    0.31
   4  11   3    3.92    1.32
  -5 -11  -3    1.58    0.88
   5  11   3    4.40    1.33
  -6 -11  -3    1.17    0.98
   6  11   3    1.82    1.25
   7  11   3    0.02    0.75
   8  11   3    1.48    1.19
   9  11   3    0.74    0.93
  10  11   3    0.01    1.09
  10  11   3    1.98    1.85
  11  11   3    2.25    1.73
  11  11   3    1.11    1.06
  12  11   3    2.43    1.95
 -12  12   3   13.26    2.74
 -11  12   3    1.17    1.83
 -10  12   3    0.04    0.61
  -9  12   3   10.09    2.31
  -8  12   3   -0.83    1.07
  -7  12   3   88.69    6.17
  -6  12   3   14.78    2.50
  -5  12   3    8.67    2.06
  -4  12   3   11.16    2.15
  -3  12   3    3.70    1.36
  -2  12   3  100.99    6.30
  -1  12   3   19.64    2.83
   0 -12   3    7.74    1.56
   0 -12  -3    9.61    1.87
   0  12   3    8.32    1.32
  -1 -12  -3   52.62    4.24
   1 -12   3   51.95    3.77
   1  12   3   52.03    3.38
   2 -12   3   12.27    1.77
  -2 -12  -3   11.97    2.10
   2  12   3   13.77    1.82
  -3 -12  -3    8.10    1.95
  -3  12  -3    5.91    1.07
   3  12   3    7.75    1.66
  -4 -12  -3    0.08    0.84
  -4  12  -3   -0.17    0.24
   4  12   3   -0.85    0.87
  -5 -12  -3    1.22    1.11
   5  12   3    2.16    1.18
  -6 -12  -3   69.40    5.77
   6  12   3   64.01    5.44
  -7 -12  -3   22.41    3.39
   7  12   3   21.40    3.41
   8  12   3   -1.18    0.85
   9  12   3   -2.04    1.44
  10  12   3    2.27    1.59
  10  12   3    0.48    1.10
  11  12   3   11.21    2.79
  11  12   3   15.11    3.43
 -11  13   3   -1.61    1.41
 -10  13   3    6.89    1.96
  -9  13   3    3.88    1.43
  -8  13   3   84.12    6.27
  -7  13   3    6.74    1.76
  -6  13   3   -2.23    1.11
  -5  13   3    2.80    1.36
  -4  13   3   25.42    3.35
  -3  13   3   27.95    3.38
  -2  13   3   10.12    2.26
  -1  13   3   33.66    3.73
   0 -13  -3   81.32    5.57
   0 -13   3   76.67    4.77
  -1 -13  -3   71.94    5.20
   1 -13   3   75.27    4.73
   1  13   3   73.61    4.04
   2 -13   3    6.77    1.47
  -2 -13  -3    7.36    1.73
   2  13   3    5.16    1.25
  -3 -13  -3   19.94    3.03
   3  13   3   22.08    2.60
  -3  13  -3   20.63    2.03
  -4 -13  -3    9.58    2.08
   4  13   3    9.63    2.03
  -5 -13  -3   27.18    3.56
   5  13   3   25.76    3.27
  -6 -13  -3   17.40    2.99
   6  13   3   19.84    3.00
  -7 -13  -3   21.97    3.50
   7  13   3   17.04    3.02
  -8 -13  -3    0.41    0.80
   8  13   3   -1.69    1.64
   9  13   3   11.15    2.74
  10  13   3    0.94    1.62
  10  13   3    0.22    1.22
  11  13   3    2.32    2.16
  11  13   3    4.87    2.55
 -11  14   3    8.59    2.24
 -10  14   3    0.37    0.78
  -9  14   3    1.34    1.05
  -8  14   3    2.52    1.25
  -7  14   3   40.63    4.34
  -6  14   3    0.24    0.78
  -5  14   3   37.45    4.18
  -4  14   3    9.19    2.17
  -3  14   3   22.32    3.16
  -2  14   3   69.74    5.64
  -1 -14   3    8.59    1.80
  -1  14   3    7.56    2.01
   0 -14  -3   17.85    2.72
   0 -14   3   22.14    2.78
  -1 -14  -3    1.99    1.04
   1 -14   3    3.34    0.96
   1  14   3    1.66    0.55
  -2 -14  -3   -0.07    1.17
   2 -14   3   -0.09    0.61
   2  14   3    0.61    0.75
  -3 -14  -3    0.14    0.63
  -3  14  -3    3.16    1.15
   3  14   3    0.24    1.00
   4  14   3   67.26    5.06
  -4 -14  -3   59.88    5.32
  -5 -14  -3    0.64    1.02
   5  14   3   -0.75    0.83
  -6 -14  -3   44.36    4.83
   6  14   3   47.63    4.87
  -7 -14  -3    2.15    1.78
   7  14   3    4.94    1.92
  -8 -14  -3    4.21    1.75
   8  14   3    3.19    1.44
  -9 -14  -3   21.53    3.62
   9  14   3   18.72    3.56
  10  14   3   -2.00    1.39
 -10 -14  -3    2.73    1.58
  10  14   3   -0.29    1.25
 -10  15   3   40.77    4.72
  -9  15   3    1.50    0.93
  -8  15   3    6.77    2.09
  -7  15   3    5.51    1.62
  -6  15   3    3.76    1.58
  -5  15   3   52.85    5.08
  -4  15   3   16.73    2.99
  -3  15   3    1.83    0.98
  -2  15   3   86.05    6.50
  -1 -15   3    0.21    0.71
  -1  15   3    0.51    1.06
   0  15   3   13.44    2.68
   0 -15   3    9.42    1.95
   0 -15  -3    8.25    1.96
  -1 -15  -3   31.97    3.61
   1 -15   3   28.76    3.23
   1  15   3   28.24    2.38
   2 -15   3    1.74    0.91
  -2 -15  -3    3.58    1.37
   2  15   3    2.75    0.91
  -3 -15  -3  102.64    7.07
   3  15   3  110.19    6.18
  -4 -15  -3   -1.25    1.10
   4  15   3    0.72    0.88
  -5 -15  -3    7.50    1.79
   5  15   3    5.57    1.69
  -6 -15  -3    1.36    1.43
   6  15   3   -0.56    1.20
  -7 -15  -3    1.18    1.15
   7  15   3    2.59    1.43
  -8 -15  -3   23.24    3.91
   8  15   3   19.36    3.59
  -9 -15  -3    9.76    2.59
   9  15   3    5.25    2.09
 -10 -15  -3   10.99    2.87
  10  15   3    5.57    2.46
 -10  16   3    3.40    1.73
  -9  16   3    6.97    2.17
  -8  16   3    0.84    0.98
  -7  16   3    3.82    2.00
  -6  16   3   47.57    5.05
  -5  16   3   21.00    3.48
  -4  16   3   15.02    2.87
  -3  16   3    9.65    2.25
  -2  16   3   -1.21    1.29
  -2 -16   3    1.17    1.12
  -1 -16   3   67.27    5.09
  -1  16   3   77.33    6.40
   0  16   3   20.71    3.64
   0 -16   3   22.96    2.86
   0 -16  -3   19.75    3.08
  -1 -16  -3    5.04    1.70
   1 -16   3    2.55    1.18
   2 -16   3   14.06    2.25
  -2 -16  -3   15.32    2.91
  -3 -16  -3    1.88    1.23
   3  16   3    1.57    0.93
  -4 -16  -3   68.30    6.04
   4  16   3   65.55    5.27
  -5 -16  -3    4.83    1.53
   5  16   3    4.79    1.60
  -6 -16  -3   -0.40    0.96
   6  16   3    1.98    1.23
  -7 -16  -3   11.51    2.68
   7  16   3   13.12    2.90
  -8 -16  -3    4.38    1.92
   8  16   3    2.24    1.67
  -9 -16  -3   26.77    4.54
   9  16   3   17.71    3.77
  10  16   3   -0.23    1.21
  -9  17   3    3.09    1.62
  -8  17   3   -0.21    0.80
  -7  17   3   12.80    2.78
  -6  17   3    0.98    1.21
  -5  17   3   13.35    2.81
  -4  17   3    3.74    1.65
  -3 -17   3    5.45    1.73
  -3  17   3    7.60    2.04
  -2  17   3    9.27    2.36
  -2 -17   3   13.25    2.33
  -1  17   3    7.31    2.23
  -1 -17   3    5.88    1.67
   0 -17  -3   29.04    3.82
   0 -17   3   26.56    3.23
   0  17   3   31.77    4.40
  -1 -17  -3    0.29    0.94
   1 -17   3   -1.92    1.04
  -2 -17  -3    9.44    2.03
   2 -17   3    9.30    2.03
  -3 -17  -3   14.27    2.74
  -4 -17  -3   11.78    2.47
  -5 -17  -3    2.94    1.63
   5  17   3    1.09    0.99
  -6 -17  -3    0.39    0.92
   6  17   3    0.30    0.99
  -7 -17  -3    3.91    2.19
   7  17   3    2.40    1.69
  -8 -17  -3   21.37    3.84
   8  17   3   15.86    3.32
   9  17   3    1.52    1.03
  -9  18   3    4.74    1.77
  -8  18   3    7.43    2.43
  -7  18   3    4.50    1.95
  -6  18   3   14.22    2.95
  -5  18   3    2.45    1.22
  -4  18   3   31.28    4.25
  -3 -18   3   19.76    3.12
  -3  18   3   16.32    3.05
  -2  18   3    2.10    1.36
  -2 -18   3    3.50    1.38
  -1  18   3   10.66    2.65
  -1 -18   3    8.43    1.88
   0 -18  -3    0.90    0.79
   0 -18   3    0.17    0.69
   0  18   3    0.02    1.02
  -1 -18  -3   14.50    2.71
   1 -18   3   10.19    2.06
   2 -18   3    0.90    0.84
  -2 -18  -3    0.68    1.29
  -3 -18  -3   17.10    3.19
  -4 -18  -3   -1.31    0.96
  -5 -18  -3   22.39    3.69
  -6 -18  -3    0.02    1.08
  -7 -18  -3    6.13    2.19
  -8  19   3    6.29    2.16
  -7  19   3    5.39    1.99
  -6  19   3   20.99    3.55
  -5  19   3    7.26    2.22
  -4  19   3    0.29    1.59
  -4 -19   3    1.59    1.14
  -3 -19   3   36.25    4.29
  -3  19   3   44.98    5.27
  -2  19   3   11.28    2.66
  -2 -19   3    7.56    1.93
  -1 -19   3   -1.19    1.09
  -1  19   3    1.42    1.16
   0 -19   3    0.72    1.15
   0  19   3    0.04    1.17
  -1 -19  -3    1.65    1.00
   1 -19   3    3.22    1.44
  -2 -19  -3   57.03    5.78
  -3 -19  -3   11.40    2.72
  -4 -19  -3    0.35    0.74
  -5 -19  -3    0.84    1.64
  -7  20   3    3.11    1.77
  -6  20   3    3.09    1.73
  -5 -20   3   12.23    2.80
  -5  20   3   12.39    3.01
  -4  20   3   28.42    4.53
  -4 -20   3   25.83    3.86
  -3 -20   3    3.33    1.11
  -3  20   3    8.18    2.54
  -2  20   3    0.31    1.31
  -2 -20   3   -0.64    0.92
  -1 -20   3    1.86    1.23
  -1  20   3    3.16    1.97
   0 -20   3   -0.52    0.93
   0  20   3    1.86    1.04
   1  20   3   14.74    3.47
  -1 -20  -3   11.69    2.88
   1 -20   3   10.61    2.28
  -2 -20  -3    0.08    0.76
  -3 -20  -3    8.52    2.57
  -7  21   3    0.63    0.94
  -6  21   3    1.62    0.87
  -5 -21   3   -0.10    0.83
  -5  21   3   -0.22    0.89
  -4  21   3    0.03    0.93
  -4 -21   3    0.26    0.76
  -3 -21   3    0.46    0.66
  -3  21   3    2.21    1.67
  -2 -21   3    0.72    1.05
  -2  21   3    3.69    2.16
  -1 -21   3    1.49    1.34
  -1  21   3    0.90    0.96
   0 -21   3    1.91    0.80
   0  21   3    1.78    1.76
   1 -21   3    1.89    1.11
   1  21   3    2.64    1.73
  -6  22   3   -0.74    1.38
  -5  22   3    1.45    1.20
  -4  22   3    8.93    2.63
  -3  22   3    1.46    1.97
  -3 -22   3    5.70    2.22
  -2 -22   3    2.27    1.17
  -2  22   3    2.61    1.62
  -1 -22   3    2.19    1.31
   0 -22   3    1.30    1.21
  -1 -23   3   -0.85    1.07
  15   0  -4    4.79    3.17
  14   0  -4   92.68    9.45
 -13   0   4   73.91    6.56
 -12   0   4   21.72    3.44
 -11   0   4  115.64    7.88
 -10   0   4    4.15    1.80
  -9   0   4  144.19    7.92
  -8   0   4   65.25    4.85
  -7   0   4    2.72    1.18
  -6   0   4  738.86   18.60
  -5   0   4   46.45    3.51
  -4   0   4   70.50    4.14
  -3   0   4   52.75    3.41
  -2   0   4  156.11    5.88
   2   0  -4  142.69    6.22
  -1   0   4 1550.95   30.47
   1   0  -4 1577.57   31.33
   0   0   4    7.22    1.09
   0   0  -4    7.15    1.18
   1   0   4   95.73    3.48
   1   0   4   88.66    3.95
   2   0   4   83.64    4.86
   2   0   4   73.55    3.50
   3   0   4   86.93    5.17
   3   0   4   78.46    4.51
   3   0   4   76.82    3.56
   4   0   4  398.39   12.90
  -4   0  -4  385.49    8.66
   4   0   4  412.51   12.05
   4   0   4  369.92    9.81
  -5   0  -4  101.20    3.75
   5   0   4  112.34    5.97
   5   0   4  109.82    6.55
   6   0   4  136.30    7.77
   6   0   4  138.12    7.12
   7   0   4  175.18    9.42
   7   0   4  195.51    8.96
   8   0   4   10.46    2.11
   9   0   4   39.19    4.29
  10   0   4   92.20    6.94
  11   0   4   28.43    3.93
  12   0   4   21.45    3.79
  15  -1  -4   72.80    8.19
  14   1  -4    8.49    3.56
  14  -1  -4    5.70    2.66
 -14   1   4    6.94    2.21
 -13   1   4    3.25    1.69
 -12  -1   4   89.28    6.91
 -12   1   4   89.63    7.19
 -11  -1   4   34.13    4.13
 -11   1   4   35.50    4.12
 -10  -1   4  107.64    7.25
 -10   1   4   98.37    6.68
  -9  -1   4    5.79    1.66
  -9   1   4    5.21    1.74
  -8  -1   4   52.85    4.51
  -8   1   4   59.88    4.60
  -7  -1   4  404.85   13.15
  -7   1   4  414.46   12.95
  -6  -1   4   18.37    2.37
  -6   1   4   17.07    2.25
  -5  -1   4  309.63   10.21
  -5   1   4  320.16   10.18
  -4  -1   4   12.18    1.70
  -4   1   4   15.26    1.88
  -3  -1   4   60.57    3.67
  -3   1   4   58.45    3.66
  -2  -1   4  381.30   10.33
  -2   1   4  373.63   10.44
   2   1  -4  346.57   10.56
   2  -1  -4  379.84   11.21
  -1  -1   4   53.10    3.12
  -1   1   4   54.11    3.21
   1   1  -4   52.87    3.27
   1  -1  -4   54.81    3.58
   0   1   4  571.38   13.35
   0  -1   4  648.45   15.45
   0  -1   4  601.23   13.70
   0   1   4  589.41   14.03
   0   1  -4  633.30   14.52
   0  -1  -4  632.48   15.43
   1  -1   4   29.32    1.60
   1   1   4   30.81    2.07
   1  -1   4   29.14    2.05
   1  -1   4   30.11    2.70
   1   1   4   27.07    2.16
  -1   1  -4   28.53    2.29
   2  -1   4    3.34    0.87
   2   1   4    2.20    0.67
   2  -1   4    3.55    0.73
   2   1   4    2.45    0.68
   3   1   4  133.30    6.55
   3  -1   4  130.69    6.49
  -3  -1  -4  118.96    4.19
   3  -1   4  125.12    5.77
   3   1   4  118.17    5.66
   3  -1   4  121.83    4.28
   3   1   4  114.28    4.71
   4   1   4  176.73    7.95
  -4  -1  -4  165.37    5.23
   4  -1   4  178.20    8.15
   4  -1   4  177.04    7.26
   4   1   4  157.33    6.99
   4  -1   4  156.07    5.14
   5  -1   4  346.92   12.69
  -5   1  -4  319.87    7.48
   5   1   4  351.46   12.33
   5  -1   4  360.68   11.46
   5   1   4  380.23   11.97
  -5  -1  -4  357.03    8.99
   5  -1   4  320.25    8.53
   6  -1   4    0.13    0.88
   6   1   4    2.02    1.34
   6  -1   4    0.22    0.69
   6   1   4   -0.21    0.67
   7  -1   4    8.19    1.20
   7   1   4    8.60    2.09
   7  -1   4    8.89    1.92
   7   1   4    9.44    2.07
   8   1   4   63.98    5.85
   8  -1   4   72.91    5.63
   8   1   4   71.84    5.56
   9  -1   4   67.29    5.64
   9   1   4   63.97    5.68
  10  -1   4   23.46    3.48
  10   1   4   20.06    3.27
  11  -1   4   14.34    2.97
  11   1   4   13.84    2.51
  12  -1   4   18.44    3.34
  12   1   4   18.19    3.30
  15  -2  -4    7.37    2.86
 -14   2   4   16.89    3.52
  14  -2  -4   16.48    3.89
 -13   2   4   15.74    3.14
 -12   2   4   30.56    4.10
 -11  -2   4   69.90    5.85
 -11   2   4   72.36    5.98
 -10  -2   4    2.38    1.32
 -10   2   4    3.73    1.48
  -9   2   4   31.71    3.48
  -9  -2   4   32.00    3.84
  -8  -2   4   20.01    1.12
  -8  -2   4   22.46    2.95
  -8   2   4   23.28    2.85
  -7  -2   4    3.72    0.46
  -7   2   4    5.37    1.34
  -7  -2   4    4.60    1.31
  -6  -2   4  321.72   11.01
  -6   2   4  305.87   10.50
  -5  -2   4    1.38    0.92
  -5   2   4   -0.34    0.66
  -4  -2   4   40.32    3.19
  -4   2   4   40.29    3.13
  -3   2   4    4.02    1.06
  -3  -2   4    5.50    1.07
  -2  -2   4   24.99    2.06
  -2  -2   4   25.83    2.20
   2   2  -4   21.69    2.18
  -2   2   4   23.78    2.18
  -1  -2   4  481.60   11.91
  -1  -2   4  445.70   11.21
   1   2  -4  420.41   11.41
  -1   2   4  454.80   11.94
   1  -2  -4  439.27   12.59
   0  -2   4   14.23    1.78
   0   2   4   12.63    1.47
   0  -2   4   15.00    1.48
   0  -2  -4   12.12    1.73
   0   2  -4   13.47    1.51
   0   2   4   13.13    1.60
   1  -2   4   84.89    4.78
   1  -2   4   80.92    2.62
   1  -2   4   89.89    3.60
   1   2   4   92.65    4.04
   1   2   4   90.71    4.29
  -1   2  -4   86.86    3.79
   2  -2   4    4.45    1.16
   2  -2   4    4.97    0.76
   2   2   4    4.76    1.00
   2   2   4    4.49    0.98
   3  -2   4   61.74    4.52
  -3  -2  -4   53.23    2.90
   3   2   4   55.20    3.78
   3  -2   4   56.40    2.52
   3   2   4   54.05    3.35
   4  -2   4  164.37    8.09
   4   2   4  175.24    7.89
  -4  -2  -4  156.22    5.48
   4  -2   4  167.09    7.04
   4   2   4  159.63    7.06
   4  -2   4  153.13    4.58
   5  -2   4  127.20    7.42
   5   2   4  135.35    7.18
  -5  -2  -4  136.64    5.26
   5  -2   4  142.59    6.67
   5   2   4  135.69    6.81
   5  -2   4  124.14    4.06
   6   2   4   60.62    4.85
   6  -2   4   48.86    2.53
  -6   2  -4   51.19    2.20
   6  -2   4   53.30    4.21
   6   2   4   65.66    4.78
   6  -2   4   50.53    2.46
   7   2   4    3.42    1.30
   7  -2   4    1.97    1.04
   7   2   4    3.05    1.53
   8   2   4   14.09    2.70
   8  -2   4   14.23    2.53
   8   2   4   17.06    2.78
   9  -2   4   25.54    3.54
   9   2   4   21.59    3.49
   9   2   4   19.21    3.01
  10  -2   4   75.29    6.23
  10   2   4   64.50    5.85
  11  -2   4    9.72    2.28
  11   2   4   11.89    2.75
  12  -2   4    0.72    1.18
  12   2   4   -0.94    0.89
 -15   3   4    8.60    2.63
  15  -3  -4    8.04    2.71
 -14   3   4    5.85    1.92
  14  -3  -4    9.44    2.67
 -13   3   4    4.64    2.09
  13  -3  -4    6.64    2.03
 -12   3   4   17.53    3.17
 -11   3   4   14.03    2.64
 -10  -3   4   35.32    4.07
 -10   3   4   29.80    3.65
  -9  -3   4    6.07    1.86
  -9   3   4    7.02    1.60
  -8  -3   4    6.17    1.53
  -8   3   4    5.43    1.41
  -7  -3   4   26.06    3.24
  -7   3   4   24.78    2.81
  -6  -3   4    1.19    0.76
  -6   3   4    0.68    0.46
  -5  -3   4   75.01    4.75
  -5   3   4   71.38    4.49
  -4   3   4    1.98    0.83
  -4  -3   4    1.09    0.38
  -4  -3   4    1.10    0.77
  -3  -3   4    2.08    0.73
  -3   3   4    2.08    0.58
  -3  -3   4    2.90    1.08
  -2  -3   4   66.74    3.39
  -2  -3   4   71.74    3.85
   2   3  -4   67.31    3.92
  -2   3   4   70.06    3.98
  -1  -3   4   35.38    2.64
  -1   3   4   35.15    2.66
  -1  -3   4   37.65    2.55
   1  -3  -4   36.24    2.86
   1   3  -4   34.47    2.54
  -1   3   4   35.78    2.88
   0   3   4   57.17    3.34
   0  -3   4   59.49    3.02
   0  -3  -4   60.86    3.95
   0   3  -4   56.98    3.08
   0   3   4   56.96    3.57
   0  -3   4   63.25    3.86
   1  -3   4   78.15    4.68
   1   3   4   86.07    4.26
   1  -3   4   82.77    3.36
  -1   3  -4   79.62    3.53
   1   3   4   85.09    4.37
   2  -3   4   23.99    2.65
  -2  -3  -4   22.93    1.95
   2  -3   4   24.18    1.52
   2   3   4   21.68    2.22
   2   3   4   22.76    2.25
   3  -3   4   45.90    3.96
  -3  -3  -4   41.51    2.70
   3   3   4   43.64    3.40
   3  -3   4   42.73    1.88
  -4  -3  -4   95.59    4.36
   4  -3   4  103.48    5.43
   4   3   4  105.44    5.64
   4  -3   4   94.19    2.77
   5   3   4   18.12    2.70
  -5  -3  -4   17.52    1.87
   5  -3   4   12.78    0.87
   5  -3   4   14.54    0.91
   5  -3   4   16.70    2.25
   5   3   4   17.39    2.42
   6   3   4   62.88    5.02
   6  -3   4   52.25    2.01
   6  -3   4   60.12    4.48
   6   3   4   57.69    4.64
   6  -3   4   51.98    2.00
  -6  -3  -4   63.20    3.91
   7   3   4   34.49    3.95
   7  -3   4   26.95    3.12
   7   3   4   28.88    3.51
   7  -3   4   22.77    1.39
   8   3   4    5.28    1.71
   8  -3   4    2.87    1.12
   8   3   4    4.63    1.44
   9   3   4   92.59    7.20
   9  -3   4   96.93    6.66
   9   3   4   95.20    7.00
  10   3   4    3.64    1.32
  10  -3   4    6.13    1.84
  10   3   4    0.72    1.32
  11  -3   4   23.62    3.62
  11   3   4   23.28    3.76
  12  -3   4    5.61    1.93
  12   3   4    9.17    2.46
  13  -3   4    0.07    1.39
  15  -4  -4   37.06    5.24
 -15   4   4   33.73    4.95
 -14   4   4    4.22    1.69
  14  -4  -4    4.01    2.26
 -13   4   4    2.12    1.34
  13  -4  -4    6.60    2.70
 -12   4   4    0.06    0.84
 -11   4   4   54.65    5.08
 -10   4   4   18.46    2.77
  -9  -4   4    2.65    1.13
  -9   4   4    4.35    1.31
  -8  -4   4   11.74    2.33
  -8   4   4    8.82    1.70
  -7  -4   4    3.30    1.25
  -7   4   4    8.89    1.73
  -6  -4   4   24.03    3.00
  -6   4   4   19.27    2.38
  -5  -4   4   22.20    2.61
  -5   4   4   21.51    2.45
  -4  -4   4   88.83    5.12
  -4   4   4   94.11    5.00
  -3  -4   4   44.33    3.30
  -3   4   4   52.44    3.58
  -2  -4   4    3.72    0.88
  -2   4   4    4.64    1.13
   2   4  -4    3.66    0.96
  -1   4   4   10.09    1.62
   1   4  -4    8.70    1.29
  -1  -4   4    9.55    1.32
  -1   4   4    7.72    1.27
   1  -4  -4    8.83    1.43
   0   4   4  127.09    5.49
   0  -4  -4  122.38    5.68
   0   4  -4  117.35    4.58
   0  -4   4  112.70    4.43
   0   4   4  130.41    5.58
   1   4   4   67.39    3.96
   1  -4   4   57.13    2.72
  -1   4  -4   61.13    2.88
   1   4   4   64.94    3.87
   2   4   4    0.63    0.69
  -2  -4  -4    0.67    0.49
   2   4   4    1.43    0.79
   2  -4   4    1.69    0.37
  -3  -4  -4   31.12    2.50
   3   4   4   27.91    2.71
  -4  -4  -4   33.25    2.63
   4   4   4   30.49    3.01
  -5  -4  -4   35.18    2.82
   5  -4   4   37.74    3.30
   5   4   4   34.06    3.40
   6   4   4    7.98    1.75
  -6  -4  -4    7.60    1.45
   6  -4   4    7.01    1.65
   6   4   4    7.30    1.82
   7   4   4   21.56    3.24
   7  -4   4   18.94    2.66
   7   4   4   18.43    2.77
   8   4   4  112.19    7.39
   8  -4   4  119.24    7.17
   8   4   4  117.78    7.48
   9   4   4   30.39    4.07
   9  -4   4   36.75    4.03
   9   4   4   27.47    3.76
  10   4   4   23.47    3.85
  10  -4   4   26.48    3.73
  10   4   4   15.61    2.89
  11   4   4    4.29    2.17
  11  -4   4    2.89    1.15
  11   4   4    2.42    1.62
  12  -4   4   13.24    2.86
  12   4   4   11.08    2.85
  13  -4   4   32.01    4.49
 -15   5   4    5.68    2.18
 -14   5   4   11.37    2.97
  14  -5  -4   19.17    3.71
 -13   5   4   -0.33    0.84
  13  -5  -4    0.62    1.32
 -12   5   4   13.62    2.83
 -11   5   4    0.48    0.74
 -10   5   4   92.38    6.34
  -9   5   4  101.06    6.44
  -8  -5   4    3.08    1.35
  -8   5   4    3.34    1.16
  -7  -5   4   19.42    2.75
  -7   5   4   18.32    2.49
  -6  -5   4   24.36    2.94
  -6   5   4   23.79    2.68
  -5  -5   4  241.34    9.42
  -5   5   4  241.91    9.01
  -4  -5   4   50.57    3.84
  -4   5   4   48.33    3.57
  -3  -5   4   48.62    3.67
  -3   5   4   50.88    3.57
  -2  -5   4   82.25    4.51
   2  -5  -4   90.12    4.44
   2   5  -4   85.33    4.55
  -2   5   4   87.44    4.74
  -1  -5   4    2.39    0.87
  -1   5   4    1.41    0.75
   1  -5  -4    2.55    0.80
   1   5  -4    1.43    0.63
   0   5  -4   58.40    3.92
   0  -5   4   55.26    3.04
   0  -5  -4   60.04    3.82
   0   5  -4   56.97    3.01
   0   5   4   54.89    3.70
   0   5   4   59.84    3.80
   1  -5   4   26.01    1.72
   1   5   4   24.74    2.52
   1   5   4   26.55    2.42
  -1   5  -4   26.36    1.78
   1   5   4   26.62    2.75
  -2  -5  -4  326.29    9.66
   2   5   4  320.88    9.95
  -2   5  -4  313.71    7.26
   2   5   4  343.35   10.82
  -3  -5  -4  166.37    6.49
   3   5   4  162.91    6.99
  -4  -5  -4    2.60    0.84
   4   5   4    1.76    0.90
  -5  -5  -4   22.91    2.52
   5  -5   4   20.41    2.48
   5   5   4   19.34    2.67
   6   5   4   52.31    4.73
  -6  -5  -4   53.63    3.96
   6  -5   4   47.48    3.98
   6   5   4   45.95    4.29
   7   5   4  109.87    7.19
   7  -5   4  118.49    6.69
   7   5   4  124.25    7.44
   8   5   4    6.80    1.71
   8  -5   4    9.49    1.96
   8   5   4   10.25    2.30
   9   5   4   30.78    4.04
   9  -5   4   33.67    3.82
   9   5   4   23.56    3.57
  10   5   4   26.73    4.09
  10  -5   4   31.78    4.02
  10   5   4   19.26    3.40
  11   5   4    1.37    1.22
  11  -5   4    4.76    1.96
  11   5   4    2.52    1.55
  12  -5   4    6.29    1.92
  12   5   4    5.51    2.35
  13  -5   4    2.76    1.60
 -15   6   4   27.41    4.52
 -14   6   4    2.69    1.99
  13  -6  -4   16.84    3.06
 -13   6   4   14.82    2.92
  12  -6  -4   23.40    3.92
 -12   6   4   19.91    3.34
 -11   6   4   89.62    6.58
 -10   6   4   41.24    4.24
  -9   6   4   38.08    3.87
  -8   6   4  102.29    6.20
  -7   6   4   15.53    2.32
  -6   6   4   77.77    5.01
  -5   6   4   -0.22    0.65
  -5  -6   4    0.34    0.84
  -4  -6   4  411.00   12.53
  -4   6   4  401.09   12.29
  -3  -6   4  346.67   10.95
  -3   6   4  385.79   11.69
   2   6  -4    5.11    1.25
   2  -6  -4    6.68    1.20
  -2  -6   4    6.47    1.28
  -2   6   4    8.41    1.51
   1   6  -4   72.69    4.17
   1   6  -4   78.52    4.04
   1  -6  -4   80.98    4.23
  -1   6   4   77.62    4.73
   0   6   4   10.75    1.79
   0   6  -4   11.61    1.78
   0  -6  -4    9.32    1.57
   0   6  -4   10.22    1.26
   1   6   4  398.68   11.45
  -1   6  -4  402.13    9.44
   1   6   4  432.72   12.74
  -2  -6  -4  129.08    5.70
   2   6   4  122.14    5.57
  -2   6  -4  107.09    3.28
  -3  -6  -4   93.65    5.01
   3   6   4   91.03    5.24
  -4  -6  -4  117.72    5.80
   4   6   4  122.20    6.32
  -5  -6  -4    0.78    0.54
   5   6   4    0.65    0.70
  -6  -6  -4   61.59    4.45
   6  -6   4   56.67    4.43
   6   6   4   59.25    4.88
   7   6   4    4.45    1.96
  -7  -6  -4    3.00    1.38
   7  -6   4    2.67    1.29
   7   6   4    2.88    1.80
   8   6   4  119.53    7.92
   8  -6   4  133.05    7.53
   8   6   4  123.26    7.95
   9   6   4   58.43    5.68
   9  -6   4   59.57    5.10
   9   6   4   56.49    5.48
  10   6   4    7.99    2.26
  10  -6   4    3.98    1.79
  10   6   4    2.89    1.22
  11   6   4    8.15    2.34
  11  -6   4   10.00    2.33
  11   6   4   13.59    3.09
  12   6   4    1.25    1.09
  12  -6   4    1.19    1.25
  13  -6   4   19.16    3.46
 -15   7   4    4.72    2.00
 -14   7   4   35.14    4.90
 -13   7   4   24.96    3.91
 -12   7   4   52.35    5.40
  12  -7  -4   62.57    5.73
 -11   7   4    4.96    1.76
 -10   7   4  121.17    7.53
  -9   7   4  159.16    8.31
  -8   7   4   62.97    4.93
  -7   7   4   89.12    5.74
  -6   7   4   24.54    2.91
  -5   7   4  317.15   11.01
  -4   7   4  184.77    7.93
   3  -7  -4  252.83    7.90
  -3   7   4  259.46    9.54
   2   7  -4  218.30    7.31
   2   7  -4  214.75    8.27
   2  -7  -4  239.45    7.60
  -2   7   4  239.41    8.99
   1   7  -4    6.49    1.29
   1   7  -4    6.14    1.20
  -1   7   4    5.98    1.49
   1  -7  -4    6.31    1.22
   0   7  -4  182.20    7.85
   0   7  -4  207.86    6.70
   0  -7  -4  217.38    7.78
   0   7   4  216.09    8.58
  -1  -7  -4   49.38    3.58
   1   7   4   44.65    3.21
  -1   7  -4   44.73    2.42
   1   7   4   50.58    3.90
  -2  -7  -4  458.35   12.50
   2   7   4  435.48   12.01
  -2   7  -4  380.49    8.37
  -3  -7  -4  242.64    8.90
   3   7   4  238.12    8.94
  -4  -7  -4    0.32    0.54
   4   7   4    0.94    0.83
  -5  -7  -4  105.31    5.89
   5   7   4  108.48    6.41
  -6  -7  -4   13.06    2.28
   6   7   4   12.95    2.45
  -7  -7  -4  209.70    9.32
   7  -7   4  213.92    9.41
   7   7   4  206.90   10.14
   8   7   4   33.99    4.21
   8  -7   4   34.43    3.76
   8   7   4   35.66    4.30
   9   7   4   10.05    2.45
   9  -7   4   10.30    2.30
   9   7   4    7.10    2.12
  10   7   4   51.76    5.52
  10  -7   4   56.37    5.21
  10   7   4   29.97    4.31
  11   7   4    3.67    1.56
  11  -7   4    2.58    1.47
  11   7   4    4.78    2.12
  12   7   4   21.61    4.03
  12  -7   4   26.63    3.90
  13  -7   4    0.08    1.02
 -14   8   4    8.23    2.74
 -13   8   4   47.85    5.34
 -12   8   4   12.95    2.63
 -11   8   4   28.27    3.80
 -10   8   4   24.86    3.38
  -9   8   4   47.91    4.54
  -8   8   4  111.72    6.80
  -7   8   4   49.74    4.32
  -6   8   4   71.51    5.08
  -5   8   4   37.00    3.44
  -4   8   4  214.53    8.80
   3   8  -4  152.17    5.52
   3  -8  -4  160.01    5.73
  -3   8   4  161.13    7.41
   2   8  -4  107.93    5.06
   2  -8  -4  120.37    5.04
  -2   8   4  119.80    6.37
   1   8  -4   88.36    5.05
   1   8  -4   94.70    4.90
   1  -8  -4   98.70    4.70
  -1   8   4   94.50    5.53
   0   8  -4   19.89    1.95
   0  -8  -4   23.01    2.54
   0   8   4   22.65    2.69
  -1  -8  -4  306.21   10.29
   1  -8   4  295.18    7.84
   1   8   4  298.77    9.37
  -1   8  -4  279.73    7.77
   1   8   4  328.93   11.28
   2  -8   4   64.11    2.69
  -2  -8  -4   67.24    4.38
   2   8   4   62.18    4.03
  -2   8  -4   55.78    2.28
  -3  -8  -4  138.48    6.68
   3   8   4  129.20    6.48
  -4  -8  -4   54.40    4.23
   4   8   4   44.44    3.91
  -5  -8  -4    6.86    1.63
   5   8   4    3.36    1.29
  -6  -8  -4  173.49    8.42
   6   8   4  166.71    8.68
  -7  -8  -4    4.37    1.49
   7   8   4    2.50    1.37
   8   8   4   57.91    5.71
  -8  -8  -4   61.65    5.26
   8   8   4   54.69    5.52
   9   8   4    9.46    2.36
   9  -8   4   15.29    2.78
   9   8   4   10.79    2.50
  10   8   4    1.58    1.32
  10  -8   4    1.14    0.75
  10   8   4   -3.07    1.88
  11   8   4   52.29    5.97
  11  -8   4   49.69    5.09
  11   8   4   54.12    6.20
  12   8   4    1.51    1.42
  12  -8   4    4.13    1.74
  13  -8   4   13.67    3.00
 -14   9   4   35.52    4.93
 -13   9   4    5.12    2.27
 -12   9   4   37.07    4.50
 -11   9   4    3.19    1.44
 -10   9   4    0.84    0.75
  -9   9   4   47.34    4.57
  -8   9   4   79.27    5.73
  -7   9   4   67.70    5.17
  -6   9   4    1.10    0.96
  -5   9   4   13.46    2.13
   4   9  -4   56.60    2.87
   4  -9  -4   58.64    3.16
  -4   9   4   62.89    4.62
   3   9  -4  166.58    6.28
   3  -9  -4  179.22    6.05
  -3   9   4  173.14    8.02
   2   9  -4   17.20    2.20
  -2   9   4   16.14    2.29
   2  -9  -4   14.41    1.64
  -1   9   4   17.36    2.44
   1   9  -4   13.62    2.08
   1   9  -4   17.74    2.22
   1  -9  -4   14.99    1.76
   0   9  -4   85.24    4.47
   0  -9  -4   90.85    4.95
   0   9   4   98.78    5.86
  -1  -9  -4   60.07    4.30
   1  -9   4   61.36    3.22
  -1   9  -4   58.49    3.13
   1   9   4   62.22    3.86
   1   9   4   68.12    4.94
   2  -9   4  127.35    4.49
  -2  -9  -4  135.86    6.65
   2   9   4  136.80    6.16
  -2   9  -4  115.64    3.85
  -3  -9  -4    5.31    1.35
   3   9   4    6.83    1.65
  -4  -9  -4   45.88    4.01
   4   9   4   51.31    4.23
  -5  -9  -4   84.30    5.64
   5   9   4   81.22    5.70
  -6  -9  -4    6.54    1.95
   6   9   4    3.79    1.54
  -7  -9  -4  107.98    7.04
   7   9   4  106.47    7.26
  -8  -9  -4    8.89    2.17
   8   9   4    8.38    2.15
   9   9   4   16.18    3.21
  -9  -9  -4   13.59    2.60
   9   9   4    6.52    1.72
  10   9   4   14.02    3.05
  10  -9   4   16.05    2.72
  10   9   4   10.56    2.53
  11   9   4    5.52    2.02
  11  -9   4    9.01    2.45
  11   9   4    8.27    2.59
  12   9   4   51.04    6.37
  12  -9   4   50.38    5.47
 -14  10   4    4.86    2.20
 -13  10   4   61.96    6.21
 -12  10   4   -0.14    0.96
 -11  10   4    5.21    1.95
 -10  10   4   10.10    2.23
  -9  10   4    7.51    1.99
  -8  10   4   55.98    4.99
  -7  10   4   40.24    4.08
  -6  10   4    7.46    1.71
   5  10  -4   61.74    2.66
   5 -10  -4   72.00    3.35
  -5  10   4   79.62    5.48
   4  10  -4    3.23    0.78
   4 -10  -4    3.54    0.79
  -4  10   4    2.66    1.36
  -3  10   4    3.07    1.26
   3  10  -4    0.42    0.45
   3 -10  -4    1.45    0.67
   2  10  -4  183.33    8.18
   2 -10  -4  222.50    7.19
  -2  10   4  214.61    9.32
  -1  10   4   16.00    2.37
   1 -10  -4   18.82    2.15
   0  10  -4   37.67    3.04
   0 -10  -4   40.39    3.29
   0  10   4   45.94    4.17
  -1 -10  -4   48.86    4.06
   1 -10   4   48.60    3.04
  -1  10  -4   44.91    2.90
   1  10   4   46.61    3.42
   1  10   4   49.86    4.54
   2 -10   4    7.06    1.09
  -2 -10  -4    7.75    1.60
  -2  10  -4    6.19    0.87
   2  10   4    6.09    1.33
  -3 -10  -4  127.39    6.95
   3  10   4  106.64    6.07
  -4 -10  -4    4.72    1.32
   4  10   4    8.45    1.76
  -5 -10  -4    9.10    2.02
   5  10   4    8.19    1.95
  -6 -10  -4  166.02    8.72
   6  10   4  167.96    8.99
  -7 -10  -4    0.47    0.76
   7  10   4    0.14    0.76
  -8 -10  -4   20.19    3.15
   8  10   4   16.86    3.07
   9  10   4   21.11    3.82
  -9 -10  -4   24.62    3.60
   9  10   4   19.29    3.43
  10  10   4   19.95    3.66
 -10 -10  -4   22.29    3.60
  10  10   4   12.70    2.99
  11  10   4   60.42    6.58
  11  10   4   57.12    6.56
  12  10   4    8.02    2.77
 -13  11   4    1.76    1.11
 -12  11   4   17.16    3.16
 -11  11   4   11.38    2.59
 -10  11   4   16.43    2.99
  -9  11   4   17.51    2.93
  -8  11   4   61.11    5.27
  -7  11   4   38.20    4.05
  -6  11   4   15.91    2.57
  -5  11   4   14.04    2.53
   4  11  -4   13.52    1.79
   4 -11  -4   15.75    1.51
  -4  11   4   21.53    2.87
   3 -11  -4  101.09    4.29
  -3  11   4  105.10    6.52
  -2  11   4    1.93    1.09
   2 -11  -4    3.04    1.03
  -1  11   4   21.62    2.99
   1 -11  -4   25.23    2.55
   0  11  -4   27.24    2.84
   0 -11  -4   33.48    3.18
   0  11   4   36.96    3.78
  -1 -11  -4   53.15    4.53
   1 -11   4   58.32    3.60
  -1  11  -4   52.69    3.46
   1  11   4   55.81    3.77
   1  11   4   62.74    5.25
   2 -11   4   39.72    2.84
  -2  11  -4   41.67    2.54
   2  11   4   45.97    3.51
  -2 -11  -4   45.96    4.03
  -3 -11  -4   85.09    5.68
   3  11   4   87.05    5.37
  -3  11  -4   67.38    2.35
  -4 -11  -4   99.52    6.41
   4  11   4  101.40    6.25
  -5 -11  -4   45.52    4.44
   5  11   4   45.79    4.48
  -6 -11  -4    3.48    1.16
   6  11   4    5.73    1.92
  -7 -11  -4   60.80    5.59
   7  11   4   53.63    5.28
  -8 -11  -4   39.38    4.59
   8  11   4   34.69    4.61
   9  11   4   13.85    3.21
  -9 -11  -4   10.06    2.50
   9  11   4   13.80    3.00
  10  11   4    4.22    2.06
 -10 -11  -4    1.44    0.95
  10  11   4    1.57    1.02
  11  11   4   20.03    4.03
 -11 -11  -4   15.68    3.31
  12  11   4   49.63    6.49
 -13  12   4   61.71    6.30
 -12  12   4    0.53    0.82
 -11  12   4    2.11    1.06
 -10  12   4    9.60    2.17
  -9  12   4   24.62    3.59
  -8  12   4   70.71    5.84
  -7  12   4   44.40    4.49
  -6  12   4   31.89    3.77
  -5  12   4   50.30    4.66
  -4  12   4   29.94    3.59
  -3  12   4    5.96    1.76
   2 -12  -4  181.32    6.55
  -2  12   4  171.21    8.74
   1 -12  -4   54.43    3.77
  -1  12   4   59.26    5.00
   0 -12   4   37.09    3.06
   0 -12  -4   35.33    3.38
   0  12   4   36.86    4.12
  -1 -12  -4   64.56    5.13
   1 -12   4   66.57    4.08
  -1  12  -4   56.83    3.91
   1  12   4   62.40    4.02
   1  12   4   70.81    5.83
   2 -12   4    1.71    0.77
  -2 -12  -4    4.78    1.70
   2  12   4    3.97    1.28
  -3 -12  -4   82.09    6.00
   3  12   4   84.29    5.35
  -4 -12  -4    8.11    1.99
   4  12   4    8.31    1.88
  -5 -12  -4    1.72    1.31
   5  12   4    0.24    0.78
  -6 -12  -4  152.96    8.88
   6  12   4  157.53    9.10
  -7 -12  -4    6.29    1.95
   7  12   4    6.77    2.20
  -8 -12  -4   17.30    3.06
   8  12   4   17.67    3.35
  -9 -12  -4    2.51    1.78
   9  12   4    2.33    0.95
  10  12   4    9.77    2.64
 -10 -12  -4   10.73    2.80
  10  12   4    3.60    1.84
  11  12   4   55.66    6.55
 -11 -12  -4   54.47    6.11
 -12  13   4   41.11    5.04
 -11  13   4    0.20    1.25
 -10  13   4   18.17    3.09
  -9  13   4   31.47    4.13
  -8  13   4   69.66    5.95
  -7  13   4   85.47    6.48
  -6  13   4    0.55    1.14
  -5  13   4   59.64    5.20
  -4  13   4   82.24    6.10
  -3  13   4  165.91    8.91
  -2  13   4   82.50    6.10
  -1  13   4    9.73    2.33
   0 -13   4  141.21    6.62
   0  13   4  158.98    8.86
  -1 -13  -4   51.06    4.56
   1 -13   4   49.95    3.65
   1  13   4   53.25    3.65
   1  13   4   49.74    5.11
   2 -13   4  140.67    6.31
  -2 -13  -4  140.86    7.82
   2  13   4  135.89    6.48
  -3 -13  -4    8.33    1.98
   3  13   4   11.84    2.13
  -4 -13  -4   15.91    2.87
   4  13   4   12.37    2.35
  -5 -13  -4  110.12    7.43
   5  13   4  110.10    7.10
  -6 -13  -4   12.54    2.77
   6  13   4   10.63    2.38
  -7 -13  -4   67.70    6.15
   7  13   4   68.45    6.22
  -8 -13  -4    2.66    1.73
   8  13   4    0.16    1.37
  -9 -13  -4    4.63    1.99
   9  13   4    3.45    1.81
  10  13   4   26.62    4.71
 -10 -13  -4   26.65    4.39
  10  13   4   12.23    3.08
 -11 -13  -4    4.06    2.21
  11  13   4    3.05    2.17
 -12  14   4    6.16    2.27
 -11  14   4   36.41    4.64
 -10  14   4   16.50    3.05
  -9  14   4   42.78    4.85
  -8  14   4   87.51    6.90
  -7  14   4   25.62    3.75
  -6  14   4   93.07    6.89
  -5  14   4    8.81    2.15
  -4  14   4  161.33    9.07
  -3  14   4  155.94    9.06
  -2  14   4   56.38    5.21
  -1 -14   4   93.02    5.55
  -1  14   4   99.95    7.21
   0 -14   4    6.13    1.57
   0  14   4    7.69    1.94
  -1 -14  -4  192.48    9.49
   1 -14   4  190.92    7.96
   1  14   4  182.60    7.31
   1  14   4  199.04   10.90
   2 -14   4   71.53    4.58
  -2 -14  -4   66.67    5.61
   2  14   4   65.44    4.48
  -3 -14  -4   76.00    6.01
   3  14   4   75.72    5.21
  -4 -14  -4   74.71    6.16
   4  14   4   78.52    5.75
  -5 -14  -4   -0.26    0.82
   5  14   4    1.65    1.09
   6  14   4   92.41    7.07
  -6 -14  -4   84.24    7.03
  -7 -14  -4    3.44    1.76
   7  14   4    4.91    1.88
  -8 -14  -4   39.22    4.96
   8  14   4   38.10    4.94
  -9 -14  -4   21.63    3.72
   9  14   4   17.19    3.69
  10  14   4   -0.56    1.82
 -10 -14  -4    2.83    1.91
  10  14   4    0.85    1.15
 -11  15   4   -1.48    1.47
 -10  15   4   55.56    5.78
  -9  15   4   55.76    5.72
  -8  15   4    9.39    2.35
  -7  15   4   38.63    4.60
  -6  15   4   13.96    2.80
  -5  15   4  145.33    8.89
  -4  15   4   42.19    4.68
  -3  15   4   59.17    5.55
  -2  15   4   89.63    6.88
  -1 -15   4    0.08    0.53
  -1  15   4    2.45    1.17
   0 -15   4   63.79    4.70
   0  15   4   74.60    6.53
  -1 -15  -4    3.52    1.83
   1 -15   4    4.25    1.38
   1  15   4    4.03    1.60
   2 -15   4  137.44    6.82
  -2 -15  -4  143.33    8.42
   2  15   4  139.14    6.65
  -3 -15  -4  116.60    7.84
   3  15   4  115.96    6.60
  -4 -15  -4    1.78    1.21
   4  15   4    2.48    1.23
  -5 -15  -4   41.06    4.75
   5  15   4   37.34    4.27
  -6 -15  -4    0.79    1.23
   6  15   4    2.42    1.35
  -7 -15  -4   67.20    6.42
   7  15   4   67.38    6.37
  -8 -15  -4   13.96    3.10
   8  15   4   17.66    3.69
  -9 -15  -4   10.49    2.68
   9  15   4    8.07    2.68
  10  15   4   26.11    4.89
 -11  16   4   31.61    4.59
 -10  16   4    8.14    2.22
  -9  16   4    2.71    1.69
  -8  16   4   14.54    3.03
  -7  16   4   -0.59    0.94
  -6  16   4   17.27    3.01
  -5  16   4    5.68    2.04
  -4  16   4   79.11    6.64
  -3  16   4   65.80    6.05
  -2 -16   4    1.45    0.81
  -2  16   4    0.94    1.29
  -1 -16   4    7.71    1.70
  -1  16   4    8.40    2.44
   0 -16   4   19.44    2.65
   0  16   4   24.96    3.74
  -1 -16  -4   79.24    6.25
   1 -16   4   72.72    5.20
   1  16   4   83.06    7.30
  -2 -16  -4    4.49    1.54
  -3 -16  -4   13.57    2.73
  -4 -16  -4   28.74    4.03
   4  16   4   24.86    3.24
  -5 -16  -4    3.25    1.65
   5  16   4   -0.61    1.23
  -6 -16  -4   14.15    2.96
   6  16   4   14.25    2.76
  -7 -16  -4    6.49    2.18
   7  16   4   14.30    2.93
  -8 -16  -4   47.66    5.71
   8  16   4   52.36    5.87
   9  16   4   20.20    3.96
 -10  17   4   20.36    3.75
  -9  17   4    9.20    2.49
  -8  17   4   13.14    2.88
  -7  17   4    3.32    1.49
  -6  17   4    4.14    1.78
  -5  17   4   31.17    4.29
  -4  17   4    5.38    1.91
  -3  17   4    1.06    1.36
  -2 -17   4   14.49    2.47
  -2  17   4   14.92    3.02
  -1 -17   4    2.20    1.14
  -1  17   4    6.80    2.31
   0  17   4    7.71    2.27
   0 -17   4    7.07    1.81
  -1 -17  -4   31.96    4.06
   1 -17   4   26.92    3.22
   1  17   4   40.67    5.14
  -2 -17  -4   43.12    4.90
  -3 -17  -4   18.02    3.26
  -4 -17  -4    3.87    1.81
  -5 -17  -4    1.80    1.37
  -6 -17  -4   31.53    4.52
  -7 -17  -4   20.90    3.82
   7  17   4   26.77    4.07
   8  17   4    0.90    1.26
   9  17   4   17.53    3.85
 -10  18   4    7.09    2.50
  -9  18   4    1.89    1.54
  -8  18   4    8.97    2.51
  -7  18   4    0.12    0.88
  -6  18   4   17.13    3.24
  -5  18   4    7.54    2.20
  -4  18   4   15.92    3.13
  -3  18   4    1.03    0.91
  -3 -18   4    2.40    1.08
  -2 -18   4    1.54    0.89
  -2  18   4    1.26    1.01
  -1  18   4   10.43    2.71
  -1 -18   4    7.34    1.75
   0  18   4   28.12    4.40
   0 -18   4   27.32    3.39
  -1 -18  -4   12.27    2.83
   1  18   4   11.67    3.04
  -2 -18  -4    2.33    1.34
  -3 -18  -4    6.18    1.51
  -4 -18  -4   14.06    2.94
  -5 -18  -4   25.92    4.38
  -6 -18  -4    2.31    1.86
  -9  19   4    0.53    1.21
  -8  19   4    1.95    1.55
  -7  19   4   23.66    3.95
  -6  19   4    0.99    1.40
  -5  19   4   44.30    5.42
  -4 -19   4    1.63    1.17
  -4  19   4    0.64    1.18
  -3  19   4    4.29    1.72
  -3 -19   4    1.17    0.75
  -2 -19   4   27.30    3.53
  -2  19   4   41.57    5.33
  -1  19   4    5.83    1.91
  -1 -19   4    4.27    1.63
   0 -19   4   41.47    4.21
   0  19   4   46.61    5.97
   1  19   4    4.12    2.25
  -2 -19  -4    4.65    1.59
   2  19   4   10.52    2.89
  -3 -19  -4   14.87    3.37
  -4 -19  -4   13.83    3.06
  -7  20   4    2.09    1.75
  -6  20   4   95.00    8.28
  -5 -20   4    1.46    1.49
  -5  20   4    5.36    2.22
  -4 -20   4   16.07    2.91
  -4  20   4   24.31    4.28
  -3  20   4   10.72    2.88
  -3 -20   4    9.54    2.37
  -2 -20   4    8.95    2.15
  -2  20   4   19.54    3.70
  -1 -20   4  102.34    7.09
  -1  20   4  138.99   10.26
   0  20   4    1.27    1.26
   1  20   4   21.16    4.25
  -5 -21   4   41.17    5.03
  -4 -21   4   -0.16    1.01
  -3 -21   4   12.91    2.82
  -2 -21   4   60.26    5.52
  -3 -22   4    0.28    0.82
 -14   0   5    0.23    1.00
 -13   0   5   -0.78    1.06
 -12   0   5   -1.14    1.24
 -11   0   5    0.04    1.41
 -10   0   5    0.16    0.76
  -9   0   5   -0.99    1.02
  -8   0   5    0.46    0.77
  -7   0   5    0.50    0.92
  -6   0   5    0.46    0.83
  -5   0   5    0.49    0.64
  -4   0   5   -0.26    0.58
  -3   0   5    0.22    0.52
  -2   0   5   -0.32    0.54
  -1   0   5    0.51    0.73
   0   0  -5    0.28    0.49
   0   0   5    0.47    0.51
   0   0   5    0.28    0.41
   1   0   5    0.02    0.60
   1   0   5    0.57    0.46
   1   0   5    0.30    0.43
   2   0   5    0.95    0.90
   2   0   5   -0.39    0.56
   3   0   5   -0.50    0.92
   3   0   5    0.64    0.61
   4   0   5   -0.62    0.78
   4   0   5    0.33    0.39
   4   0   5   -0.56    0.90
   5   0   5   -1.54    1.09
   5   0   5    2.56    1.32
   5   0   5    0.62    0.49
   6   0   5   -1.68    1.21
  -6   0  -5   -0.02    0.28
   6   0   5    0.38    0.47
   6   0   5   -0.89    0.81
   7   0   5    1.48    0.81
   7   0   5   -0.56    0.79
   7   0   5    0.43    0.45
   8   0   5   -0.46    0.86
   8   0   5   -0.37    1.17
   9   0   5   -1.05    1.24
  10   0   5    0.29    1.17
  11   0   5   -1.45    1.15
 -14   1   5   -0.57    1.01
 -13   1   5    7.17    2.22
 -13  -1   5    3.00    1.24
 -12  -1   5    4.30    1.44
 -12   1   5    2.98    1.52
 -11   1   5   -0.58    1.17
 -11  -1   5   -2.23    1.61
 -10  -1   5    3.90    1.51
 -10   1   5    0.94    1.06
  -9  -1   5   29.28    3.67
  -9   1   5   28.31    3.46
  -8  -1   5    0.29    0.84
  -8   1   5    0.04    0.89
  -7  -1   5   -0.48    0.68
  -7   1   5   -0.15    0.68
  -6  -1   5    1.91    1.07
  -6   1   5    0.63    0.56
  -5  -1   5   26.68    2.87
  -5   1   5   34.55    3.17
  -4  -1   5  109.24    5.65
  -4   1   5   99.36    5.41
  -3  -1   5    0.23    0.61
  -3   1   5    1.25    0.89
  -2   1   5    4.77    1.21
  -2  -1   5    4.53    1.04
  -1   1   5   10.56    1.53
   1   1  -5    8.24    1.49
  -1  -1   5   11.03    1.54
   0  -1   5   11.15    1.49
   0  -1   5   12.23    1.90
   0   1  -5    8.68    1.45
   0   1   5    8.93    1.26
   0   1   5    8.65    1.45
   1  -1   5   47.51    3.79
   1  -1   5   44.06    2.33
   1   1   5   41.50    2.75
   1  -1   5   42.12    2.84
   1   1   5   49.30    3.27
   2  -1   5   15.65    2.28
   2  -1   5   17.81    1.72
   2   1   5   17.35    1.93
   3  -1   5   36.23    3.65
   3   1   5   35.30    3.59
   3  -1   5   37.12    2.49
   3   1   5   36.22    2.77
   4  -1   5   37.55    3.95
   4   1   5   37.04    3.84
   4  -1   5   40.98    3.58
   4   1   5   34.81    3.43
   4  -1   5   39.58    2.55
   4   1   5   36.21    2.72
   5  -1   5    0.15    0.81
   5   1   5    0.68    0.86
  -5  -1  -5    1.16    0.53
   5  -1   5    0.18    0.40
   5  -1   5   -0.21    0.71
   5   1   5   -0.21    0.67
   5   1   5    0.95    0.64
   6   1   5    1.35    1.65
   6   1   5   -0.33    0.39
  -6  -1  -5    0.13    0.32
   6  -1   5   -1.37    0.95
   6  -1   5    0.34    0.41
   6  -1   5    0.79    0.99
   6   1   5    0.08    0.88
   7   1   5    9.29    2.20
   7  -1   5   13.75    3.06
   7  -1   5   11.10    1.36
  -7  -1  -5   11.46    1.49
   7  -1   5    8.56    2.00
   7   1   5   11.69    2.43
   8   1   5    3.73    1.68
   8  -1   5    6.82    1.96
   8   1   5    6.02    1.79
   9   1   5   10.51    2.77
   9  -1   5   18.00    3.10
   9   1   5   17.49    2.97
  10  -1   5    1.45    1.46
  10   1   5    0.60    0.74
  11  -1   5    6.88    2.04
  11   1   5    2.29    1.20
  15  -2  -5    5.25    2.92
 -14   2   5   -0.23    1.04
 -13   2   5    4.99    2.11
 -13  -2   5    0.94    1.17
 -12   2   5   29.12    4.06
 -12  -2   5   32.61    4.37
 -11  -2   5   29.98    3.98
 -11   2   5   29.15    3.95
 -10  -2   5   40.62    4.61
 -10   2   5   39.29    4.15
  -9  -2   5    0.50    1.03
  -9   2   5   -0.36    0.82
  -8  -2   5   20.32    2.88
  -8   2   5   19.27    2.74
  -7  -2   5   31.10    3.39
  -7   2   5   32.05    3.38
  -6  -2   5   12.55    2.04
  -6   2   5   10.65    1.86
  -5  -2   5   20.68    2.52
  -5   2   5   23.76    2.73
  -4  -2   5   53.06    3.84
  -4   2   5   54.73    3.96
  -3  -2   5  151.99    5.98
  -3  -2   5  168.30    6.89
  -3   2   5  158.98    6.82
  -2  -2   5   15.64    1.89
  -2   2   5   14.26    1.95
  -2  -2   5   14.59    1.83
  -1  -2   5   24.98    2.54
  -1  -2   5   22.65    2.16
  -1   2   5   22.56    2.28
   1   2  -5   21.51    2.29
   0  -2   5    0.87    0.66
   0   2   5    1.01    0.54
   0   2  -5    1.33    0.55
   0   2   5    1.70    0.72
   0  -2   5    2.16    0.67
   1  -2   5   90.12    5.40
   1  -2   5   85.96    3.16
   1   2   5   98.38    4.56
   1  -2   5   96.67    4.31
   1   2   5   95.91    4.78
  -1   2  -5   94.99    4.74
   2  -2   5  128.29    6.89
   2  -2   5  135.18    5.07
   2   2   5  134.45    5.85
   3  -2   5   12.24    2.26
   3   2   5   12.66    1.97
   3  -2   5   13.01    1.39
   3   2   5   13.64    1.72
   4  -2   5    4.38    1.44
   4   2   5    1.12    0.62
   4  -2   5    1.46    0.51
   4   2   5    0.83    0.74
   4   2   5    0.82    0.82
   5  -2   5   38.39    4.19
   5   2   5   44.34    4.29
  -5  -2  -5   41.36    2.74
   5  -2   5   44.76    3.96
   5   2   5   39.22    3.72
   5  -2   5   42.98    2.32
   5   2   5   41.75    3.28
   6   2   5    1.56    1.36
  -6  -2  -5    3.69    0.99
   6  -2   5    3.70    1.26
   6   2   5    2.91    1.23
   6  -2   5    2.57    0.56
   7   2   5    7.51    1.96
  -7  -2  -5    7.05    1.34
   7  -2   5    4.59    1.54
   7   2   5    6.45    1.72
   8   2   5   -0.19    1.05
   8  -2   5    2.29    1.32
   8   2   5    4.79    1.77
   9   2   5    8.78    2.61
   9  -2   5   12.21    2.48
   9   2   5   10.70    2.67
  10  -2   5   53.66    5.39
  10   2   5   51.28    5.54
  11  -2   5   -1.71    1.38
  11   2   5   -0.38    1.29
  15  -3  -5   14.35    4.21
 -14   3   5   -0.47    1.15
 -13   3   5    9.16    2.36
 -12  -3   5    4.55    1.80
 -12   3   5    3.17    1.61
 -11  -3   5    2.64    1.20
 -11   3   5   -0.36    1.13
 -10   3   5    0.42    0.72
 -10  -3   5    0.83    1.07
  -9  -3   5   62.06    5.63
  -9   3   5   59.85    4.97
  -8  -3   5    0.43    0.98
  -8   3   5    0.45    1.10
  -7  -3   5   18.20    2.74
  -7   3   5   18.96    2.64
  -6  -3   5   41.67    3.92
  -6   3   5   48.67    3.97
  -5  -3   5   11.85    1.15
  -5  -3   5   12.08    2.09
  -5   3   5   13.93    1.96
  -4  -3   5  172.77    5.76
  -4  -3   5  190.11    7.83
  -4   3   5  188.79    7.78
  -3  -3   5    0.49    0.62
  -3   3   5    0.37    0.74
  -3  -3   5    0.48    0.80
  -2  -3   5    6.29    1.12
  -2   3   5    6.46    1.51
  -2  -3   5    6.31    1.23
  -1  -3   5    1.01    0.67
  -1  -3   5    0.36    0.50
  -1   3   5    1.12    0.77
   1   3  -5    0.34    0.43
   0  -3   5    2.00    0.74
   0   3  -5    2.15    0.84
   0   3   5    2.56    0.77
   0  -3   5    2.36    0.81
   0   3   5    2.00    0.55
   1  -3   5   39.60    3.63
   1  -3   5   36.71    1.73
   1   3   5   44.57    3.22
   1  -3   5   40.79    2.63
   1   3   5   39.69    3.14
  -1   3  -5   40.36    2.84
   2  -3   5   75.90    5.37
   2  -3   5   74.54    3.39
   2   3   5   72.69    4.35
   3  -3   5    5.86    1.53
   3   3   5    5.36    1.10
   3   3   5    6.65    1.53
   3  -3   5    5.97    0.86
   4  -3   5   55.35    4.99
   4   3   5   64.42    5.09
  -4  -3  -5   63.57    3.69
   4   3   5   65.91    4.70
   4  -3   5   64.50    2.64
   4   3   5   68.29    4.29
   5   3   5   44.71    4.32
  -5  -3  -5   41.37    2.95
   5   3   5   42.62    3.89
   5  -3   5   38.97    1.77
   5   3   5   42.27    3.43
   6   3   5   -1.41    0.84
  -6  -3  -5    0.82    0.70
   6  -3   5    0.50    0.79
   6   3   5   -0.24    0.76
   7   3   5   51.36    5.12
  -7  -3  -5   52.91    3.75
   7  -3   5   55.57    4.80
   7   3   5   54.44    4.92
   8   3   5    1.32    1.18
   8  -3   5    3.76    1.56
   8   3   5    1.73    1.09
   9   3   5   21.21    3.64
   9  -3   5   26.07    3.50
   9   3   5   23.57    3.54
  10   3   5   -1.12    1.20
  10  -3   5   -0.04    0.76
  11  -3   5    0.36    1.01
  11   3   5   -2.95    1.55
 -14   4   5    9.01    2.69
  14  -4  -5   10.74    3.40
 -13   4   5    0.35    0.97
 -12   4   5   35.45    4.45
 -11  -4   5    0.62    1.08
 -11   4   5    2.78    1.31
 -10  -4   5   10.40    2.34
 -10   4   5    8.28    2.03
  -9  -4   5   22.38    3.14
  -9   4   5   17.93    2.70
  -8  -4   5    2.73    1.36
  -8   4   5    1.81    1.35
  -7  -4   5   34.63    3.93
  -7   4   5   36.60    3.62
  -6  -4   5   48.81    4.35
  -6   4   5   49.82    4.07
  -5  -4   5    1.08    0.98
  -5   4   5    0.93    0.55
  -4   4   5    7.64    1.56
  -4  -4   5    6.45    1.50
  -3  -4   5    8.04    1.59
  -3   4   5    7.43    1.50
  -2  -4   5    8.36    1.48
  -2  -4   5    8.96    1.53
  -2   4   5    8.67    1.52
  -1  -4   5  176.54    7.58
  -1  -4   5  210.07    7.29
   1   4  -5  198.62    7.34
  -1   4   5  213.05    8.05
   0   4   5    8.91    1.47
   0  -4   5    9.97    1.40
   0  -4   5    7.49    1.67
   0   4  -5    9.35    1.40
   1   4   5   52.31    3.74
   1  -4   5   46.70    2.74
   1   4   5   50.51    3.83
  -1   4  -5   51.75    3.08
   2   4   5    2.03    1.03
   2  -4   5    0.71    0.37
   3  -4   5    3.81    0.61
   3   4   5    3.55    1.21
   3   4   5    5.01    1.22
  -4  -4  -5   67.89    3.98
   4   4   5   67.39    4.85
   4   4   5   67.81    4.46
   5   4   5    5.19    1.81
  -5  -4  -5    4.49    1.16
   5   4   5    3.53    1.27
  -6  -4  -5   12.90    1.88
   6  -4   5   15.22    2.44
   6   4   5   14.68    2.52
   6   4   5   12.10    2.39
   7   4   5   13.32    2.55
  -7  -4  -5   17.09    2.21
   7  -4   5   19.64    2.88
   7   4   5   12.72    2.48
   8   4   5   21.76    3.54
  -8  -4  -5   19.06    2.56
   8  -4   5   20.83    3.16
   8   4   5   20.12    3.33
   9   4   5    1.69    0.83
   9  -4   5    3.36    1.74
   9   4   5    2.47    1.60
  10   4   5   13.98    3.15
  10  -4   5   14.51    2.81
  10   4   5   15.71    3.07
  11   4   5   -0.31    1.25
  11  -4   5   -3.45    1.61
  11   4   5   -2.18    1.56
 -14   5   5    2.29    1.43
 -13   5   5    1.21    0.87
 -12   5   5    4.16    1.41
 -11   5   5    5.89    1.79
 -10   5   5   37.16    4.18
  -9  -5   5    7.85    1.93
  -9   5   5    8.88    1.99
  -8  -5   5    3.86    1.41
  -8   5   5    2.52    1.07
  -7  -5   5   49.80    4.54
  -7   5   5   51.09    4.42
  -6  -5   5   28.99    3.31
  -6   5   5   29.57    3.24
  -5  -5   5   57.37    4.61
  -5   5   5   54.65    4.24
  -4  -5   5    0.99    0.61
  -4   5   5    1.32    0.78
  -3  -5   5    8.91    1.72
  -3   5   5    8.10    1.55
  -2  -5   5  120.10    5.87
  -2   5   5  125.02    6.30
  -1  -5   5    6.12    1.16
   1   5  -5    5.11    1.12
  -1   5   5    7.40    1.57
   0  -5   5   41.83    2.86
   0   5  -5   49.20    3.16
   0   5   5   53.13    3.85
   1  -5   5    0.86    0.51
  -1   5  -5    0.65    0.54
   1   5   5    0.88    0.74
   2  -5   5   30.34    1.89
   2   5   5   36.48    3.25
   2   5   5   35.77    3.14
  -3  -5  -5   58.20    3.82
   3   5   5   58.05    4.35
   3   5   5   63.16    4.44
  -4  -5  -5    2.60    0.87
   4   5   5    0.58    0.57
   4   5   5   -0.37    0.59
  -5  -5  -5   19.80    2.27
   5   5   5   16.95    2.72
   6   5   5    4.75    1.32
  -6  -5  -5    8.57    1.67
   6   5   5    5.99    1.62
   7   5   5   28.65    3.83
  -7  -5  -5   32.45    3.18
   7  -5   5   32.42    3.66
   7   5   5   28.08    3.75
   8   5   5   32.18    4.24
  -8  -5  -5   34.86    3.51
   8  -5   5   38.61    4.24
   8   5   5   32.81    4.22
   9   5   5   -0.08    1.51
   9  -5   5    0.29    0.74
   9   5   5    0.75    1.10
  10   5   5    3.31    1.61
  10  -5   5    2.97    1.39
  10   5   5    0.11    0.83
  11   5   5    1.18    1.01
  11  -5   5   -0.99    1.43
  11   5   5   -2.17    1.81
  12  -5   5    6.37    2.15
 -14   6   5    0.63    1.09
 -13   6   5    0.96    1.41
 -12   6   5    2.96    1.44
 -11   6   5   45.16    4.87
 -10   6   5    0.45    0.97
  -9   6   5    3.44    1.37
  -8   6   5    0.12    0.74
  -7  -6   5   20.28    3.04
  -7   6   5   17.24    2.53
  -6  -6   5   93.26    6.06
  -6   6   5   89.34    5.70
  -5   6   5    1.66    0.80
  -5  -6   5   -0.87    0.84
  -4  -6   5    7.55    1.67
  -4   6   5    7.61    1.62
  -3  -6   5   10.73    1.87
  -3   6   5   11.60    1.97
  -2  -6   5   74.69    4.53
  -2   6   5   80.32    4.95
  -1  -6   5   69.63    4.02
   1   6  -5   64.38    3.93
  -1   6   5   63.06    4.49
   0  -6   5    7.94    1.25
   0   6  -5    9.46    1.42
   0   6   5    8.20    1.73
  -1   6  -5    0.15    0.37
   1   6   5   -0.16    0.73
   2   6   5   38.83    3.42
   2   6   5   34.07    3.22
  -2   6  -5   35.59    2.11
  -3  -6  -5   63.50    4.22
   3   6   5   62.42    4.55
   3   6   5   62.18    4.75
  -4  -6  -5   73.13    4.59
   4   6   5   70.53    4.94
  -5  -6  -5    0.41    0.53
   5   6   5    2.65    1.19
  -6  -6  -5    5.55    1.33
   6   6   5    4.43    1.60
   7   6   5   12.52    2.78
  -7  -6  -5   13.67    2.23
   7   6   5   14.51    2.59
   8   6   5    7.29    2.27
  -8  -6  -5    3.70    1.42
   8  -6   5    6.44    1.92
   8   6   5    7.85    2.13
   9   6   5   27.51    4.22
   9  -6   5   31.62    3.99
   9   6   5   30.03    4.08
  10   6   5    0.86    1.13
  10  -6   5    0.61    1.21
  10   6   5    0.57    0.94
  11   6   5   13.67    3.07
  11  -6   5   11.32    2.73
  11   6   5    9.60    2.66
  12  -6   5    3.01    1.33
 -14   7   5   12.30    3.05
 -13   7   5    2.29    0.84
 -12   7   5    0.27    0.92
 -11   7   5    3.14    1.17
 -10   7   5   11.92    2.44
  -9   7   5    0.01    0.87
  -8   7   5   37.36    3.97
  -7   7   5   11.93    2.18
  -6   7   5    6.15    1.49
  -5   7   5   54.91    4.40
  -4   7   5    0.45    0.80
  -3   7   5   89.90    5.53
  -2   7   5    1.51    0.68
  -1   7   5    0.34    0.53
   1   7  -5    0.53    0.63
   0   7  -5   14.90    1.70
   0   7   5   13.17    2.15
  -1   7  -5   29.53    2.19
   1   7   5   34.97    3.38
   2   7   5    8.91    1.89
  -2   7  -5    7.20    0.87
   2   7   5    7.33    1.58
  -3  -7  -5   59.88    4.32
   3   7   5   62.38    4.50
   3   7   5   63.22    5.05
  -4  -7  -5    4.11    1.21
   4   7   5    4.38    1.44
  -5  -7  -5   10.81    1.94
   5   7   5    9.53    1.97
  -6  -7  -5   46.80    4.10
   6   7   5   45.26    4.47
   7   7   5   -0.21    0.96
  -7  -7  -5    1.50    1.07
   7   7   5    1.07    1.27
   8   7   5   29.96    4.27
  -8  -7  -5   31.69    3.67
   8   7   5   32.77    4.18
   9   7   5    4.05    1.83
  -9  -7  -5    0.89    1.02
   9   7   5    1.53    1.32
  10   7   5    2.20    1.52
  10  -7   5    2.71    1.58
  10   7   5    1.14    0.99
  11   7   5    2.57    1.69
  11  -7   5    2.05    1.64
  12  -7   5    2.77    1.31
 -13   8   5   40.53    5.05
 -12   8   5    4.62    1.79
 -11   8   5    7.54    2.02
 -10   8   5    0.89    0.98
  -9   8   5   18.13    2.99
  -8   8   5   60.25    5.16
  -7   8   5    0.28    0.67
  -6   8   5   -1.32    0.94
  -5   8   5   35.59    3.64
  -4   8   5    1.14    0.81
  -3   8   5    3.73    1.33
  -2   8   5   53.88    4.40
   1   8  -5   43.18    3.38
  -1   8   5   49.16    4.22
   0   8  -5  143.41    5.89
   0   8   5  168.25    7.87
  -1   8  -5    8.13    1.16
   1  -8   5    7.45    0.94
   1   8   5   10.01    2.10
  -2  -8  -5    1.08    0.76
  -2   8  -5    0.52    0.29
   2   8   5    1.86    1.05
   2   8   5   -1.27    0.78
   3   8   5    4.16    1.26
  -3  -8  -5    4.45    1.34
   3   8   5    5.56    1.43
  -4  -8  -5    6.11    1.50
   4   8   5    5.07    1.46
  -5  -8  -5   44.28    4.07
   5   8   5   53.78    4.76
  -6  -8  -5    4.63    1.42
   6   8   5    6.89    1.95
  -7  -8  -5   12.38    2.26
   7   8   5   15.98    2.93
   8   8   5   11.52    2.78
  -8  -8  -5    9.59    2.02
   8   8   5    8.67    2.24
   9   8   5    8.80    2.52
  -9  -8  -5    9.17    2.31
   9   8   5    8.77    2.54
  10   8   5    2.43    1.87
  10   8   5   -1.93    1.50
  11   8   5   18.94    3.92
 -13   9   5    0.61    0.84
 -12   9   5    2.71    1.59
 -11   9   5    0.02    0.76
 -10   9   5    0.52    0.96
  -9   9   5    4.78    1.72
  -8   9   5   44.32    4.44
  -7   9   5   51.35    4.74
  -6   9   5   17.69    2.74
  -5   9   5    7.86    1.92
   5  -9  -5    5.97    1.25
  -4   9   5    3.26    1.08
   4  -9  -5    3.86    1.04
   3  -9  -5   36.54    3.04
  -3   9   5   39.67    3.81
   2   9  -5   36.03    3.26
  -2   9   5   48.13    4.25
  -1   9   5   17.95    2.60
   0   9  -5   11.90    1.60
   0   9   5   10.25    2.00
   1  -9   5   68.21    3.22
  -1   9  -5   67.21    3.45
   1   9   5   69.61    5.49
  -2  -9  -5    1.59    0.83
   2   9   5    4.42    1.22
   2   9   5    3.50    1.44
  -2   9  -5    1.98    0.46
  -3  -9  -5   -0.32    1.01
   3   9   5    0.32    0.57
   3   9   5   -0.45    0.69
  -4  -9  -5    6.36    1.53
   4   9   5    6.42    1.84
  -5  -9  -5   35.64    3.79
   5   9   5   40.44    4.23
  -6  -9  -5   46.65    4.47
   6   9   5   51.00    4.97
  -7  -9  -5    4.95    1.72
   7   9   5    2.53    1.21
   8   9   5    7.44    2.46
  -8  -9  -5    4.67    1.76
   8   9   5    3.05    1.75
   9   9   5    3.00    1.49
  -9  -9  -5    1.48    1.30
   9   9   5    1.14    0.92
  10   9   5    5.94    2.51
  10   9   5   -0.75    1.01
  11   9   5    4.76    2.47
 -13  10   5    7.31    2.46
 -12  10   5    0.26    1.69
 -11  10   5   -0.46    1.02
 -10  10   5    1.07    0.85
  -9  10   5    4.79    1.57
  -8  10   5    9.86    2.32
  -7  10   5    1.42    0.99
  -6  10   5    3.88    1.51
  -5  10   5    2.12    0.90
  -4  10   5    0.52    1.29
   3  10  -5    2.66    0.93
   3 -10  -5    1.86    0.91
  -3  10   5    2.63    1.19
  -2  10   5   11.18    2.17
  -1  10   5    8.76    2.04
   0  10   5   23.37    3.02
   0  10  -5   19.39    2.23
   1 -10   5    4.85    0.92
   1  10   5    5.36    1.58
   2  10   5    0.81    0.97
  -2 -10  -5    0.22    0.69
   2  10   5    0.55    0.65
  -3 -10  -5   -0.28    0.74
   3  10   5    1.06    0.65
  -4 -10  -5   -0.45    0.85
   4  10   5    1.59    1.00
  -5 -10  -5   13.74    2.58
   5  10   5   12.56    2.32
  -6 -10  -5    0.71    0.91
   6  10   5    1.01    1.08
  -7 -10  -5    3.62    1.34
   7  10   5    2.55    1.44
  -8 -10  -5    2.45    1.36
   8  10   5    5.38    2.07
   9  10   5    2.20    2.04
  -9 -10  -5    3.24    1.51
   9  10   5   -0.80    1.64
  10  10   5    0.69    1.00
  10  10   5   -2.01    1.43
 -13  11   5    0.50    0.81
 -12  11   5    1.16    1.04
 -11  11   5    2.99    1.52
 -10  11   5    0.37    1.07
  -9  11   5    3.20    1.77
  -8  11   5    4.28    1.73
  -7  11   5    2.40    1.11
  -6  11   5    2.46    1.35
  -5  11   5   -0.34    1.02
  -4  11   5   10.98    2.10
  -3  11   5   -1.20    1.05
  -2  11   5    6.16    1.65
  -1  11   5    7.58    1.93
   0  11   5    1.03    0.79
   1 -11   5   22.40    2.07
   1  11   5   27.29    3.50
  -2 -11  -5    1.58    0.95
   2  11   5    1.18    1.14
   2  11   5   -0.75    0.87
  -3 -11  -5    1.62    0.94
   3  11   5    0.24    0.61
  -4 -11  -5    1.65    0.97
   4  11   5   -0.08    0.69
  -5 -11  -5   -0.24    0.67
   5  11   5    0.72    1.08
  -6 -11  -5    8.67    2.01
   6  11   5    9.36    2.26
  -7 -11  -5    0.74    0.91
   7  11   5   -0.83    1.02
  -8 -11  -5    3.18    1.65
   8  11   5    2.01    1.63
   9  11   5    2.68    1.74
  -9 -11  -5    3.84    1.20
   9  11   5    3.40    1.98
  10  11   5   -0.59    1.70
 -12  12   5    0.60    0.90
 -11  12   5    0.88    1.14
 -10  12   5    1.42    1.02
  -9  12   5   12.59    2.65
  -8  12   5   35.31    4.39
  -7  12   5   -1.09    0.65
  -6  12   5    3.93    1.46
  -5  12   5   24.57    3.44
  -4  12   5   -0.20    0.74
  -3  12   5   14.59    2.54
  -2  12   5   11.40    2.35
  -1  12   5   25.20    3.37
   0 -12   5   83.56    4.59
   0  12   5   91.51    6.74
   1  12   5    4.99    1.72
   1 -12   5    2.66    0.94
  -2 -12  -5   17.38    2.76
   2  12   5   14.33    2.74
   2  12   5   19.80    2.58
  -3 -12  -5    1.15    0.71
   3  12   5    1.85    0.82
  -4 -12  -5    5.37    1.65
   4  12   5    7.08    2.05
  -5 -12  -5   39.61    4.53
   5  12   5   38.08    4.33
  -6 -12  -5    2.88    1.28
   6  12   5    5.94    1.93
  -7 -12  -5   19.69    3.32
   7  12   5   20.04    3.63
  -8 -12  -5    4.59    1.68
   8  12   5    4.07    1.74
   9  12   5    6.59    2.60
  -9 -12  -5    3.24    1.80
   9  12   5    0.98    1.64
 -12  13   5    1.77    1.35
 -11  13   5    0.01    0.93
 -10  13   5    1.31    1.22
  -9  13   5    4.20    1.73
  -8  13   5   23.50    3.52
  -7  13   5   29.18    3.96
  -6  13   5   29.81    3.91
  -5  13   5   12.69    2.62
  -4  13   5    6.78    1.87
  -3  13   5   41.88    4.55
  -2  13   5   18.77    3.08
  -1  13   5    5.92    1.50
   0  13   5    2.04    1.08
   0 -13   5    2.85    0.91
   1 -13   5   36.87    3.03
   1  13   5   37.54    4.61
  -2 -13  -5    0.62    0.79
   2  13   5    0.18    0.64
   2  13   5    1.17    1.58
  -3 -13  -5    4.73    1.62
   3  13   5    3.46    1.21
  -4 -13  -5    1.95    1.22
   4  13   5   -0.60    0.80
  -5 -13  -5   24.80    3.54
   5  13   5   19.71    3.09
  -6 -13  -5   57.19    5.70
   6  13   5   71.44    6.25
  -7 -13  -5    1.79    1.07
   7  13   5    0.05    0.91
  -8 -13  -5   -0.36    1.06
   8  13   5    3.76    1.87
  -9 -13  -5    1.17    1.04
   9  13   5    1.66    1.38
 -11  14   5   19.02    3.58
 -10  14   5    1.49    0.95
  -9  14   5    3.38    1.50
  -8  14   5   13.56    2.89
  -7  14   5    3.90    1.71
  -6  14   5   18.64    3.24
  -5  14   5   14.72    2.88
  -4  14   5    4.61    1.78
  -3  14   5    3.05    1.61
  -2  14   5   31.93    4.17
  -1 -14   5   -0.19    0.66
  -1  14   5    1.62    1.13
   0 -14   5   67.30    4.54
   0  14   5   84.17    6.78
   1  14   5    4.30    1.66
  -2 -14  -5    4.56    1.44
   2  14   5    5.22    1.22
   2  14   5    6.38    1.65
  -3 -14  -5   16.64    3.00
   3  14   5   13.90    2.37
  -4 -14  -5    0.53    1.04
   4  14   5    2.32    1.21
  -5 -14  -5   20.02    3.52
   5  14   5   21.94    3.33
  -6 -14  -5    2.26    1.09
   6  14   5    2.82    1.40
  -7 -14  -5    0.53    1.25
   7  14   5    1.54    1.02
  -8 -14  -5    1.44    1.47
   8  14   5    3.52    1.50
  -9 -14  -5   10.24    2.69
   9  14   5   10.17    2.85
 -10 -14  -5   -0.09    1.50
 -10  15   5   24.76    4.02
  -9  15   5   -0.52    0.98
  -8  15   5    7.15    2.03
  -7  15   5    4.80    1.68
  -6  15   5    0.69    0.99
  -5  15   5   62.64    5.96
  -4  15   5    1.75    1.67
  -3  15   5   18.79    3.39
  -2  15   5   18.28    3.29
  -1 -15   5    1.21    0.76
  -1  15   5   -0.51    1.42
   0 -15   5   18.92    2.50
   0  15   5   23.93    3.76
   1  15   5    5.99    2.32
  -2 -15  -5   10.26    2.44
   2  15   5    5.61    2.29
   3  15   5   51.89    5.89
  -3 -15  -5   45.68    4.95
   3  15   5   40.61    3.99
  -4 -15  -5    9.25    2.36
   4  15   5   11.89    2.30
  -5 -15  -5    1.39    1.18
   5  15   5    1.40    1.29
  -6 -15  -5    6.57    2.31
   6  15   5    6.65    2.10
  -7 -15  -5    3.98    2.09
   7  15   5    3.06    1.65
  -8 -15  -5   23.17    4.01
   8  15   5   20.79    3.84
  -9 -15  -5    0.47    1.50
 -10  16   5    1.62    1.47
  -9  16   5    8.96    2.74
  -8  16   5    0.85    0.89
  -7  16   5    5.32    2.08
  -6  16   5   43.43    5.16
  -5  16   5    0.42    1.18
  -4  16   5    5.93    1.96
  -3  16   5   10.15    2.72
  -2 -16   5   10.87    1.99
  -2  16   5   14.42    3.10
  -1 -16   5   34.71    3.49
  -1  16   5   41.27    5.19
   0  16   5    0.94    1.11
   1  16   5   -0.16    1.15
   2  16   5   11.70    2.85
  -2 -16  -5    8.86    2.32
  -3 -16  -5    9.34    2.59
   3  16   5    8.30    2.71
  -4 -16  -5   20.79    3.41
  -5 -16  -5    0.09    1.01
  -6 -16  -5    5.05    2.18
   6  16   5    0.11    1.26
  -7 -16  -5    6.85    2.43
   7  16   5    6.41    1.91
   8  16   5    1.86    1.04
  -9  17   5    4.05    1.71
  -8  17   5   -0.59    0.77
  -7  17   5    9.19    2.49
  -6  17   5    3.08    1.44
  -5  17   5    5.75    1.96
  -4  17   5   11.85    2.83
  -3  17   5    0.55    0.82
  -2 -17   5   10.95    2.12
  -2  17   5   13.45    2.90
  -1  17   5    0.76    1.15
   0  17   5    9.53    2.65
   1  17   5    1.78    1.51
   2  17   5   12.77    3.21
  -2 -17  -5    9.13    2.34
  -3 -17  -5    8.23    2.52
   3  17   5   10.46    2.85
  -4 -17  -5    7.82    2.57
  -5 -17  -5    6.25    2.07
  -6 -17  -5   -0.41    1.08
  -7  18   5    5.46    2.41
  -6  18   5    1.95    1.69
  -5  18   5    9.06    2.74
  -4  18   5    3.11    1.77
  -3  18   5   33.16    4.71
  -3 -18   5   19.55    2.94
  -2 -18   5    1.10    0.70
  -2  18   5    1.06    1.45
  -1  18   5   10.52    2.79
   0  18   5    2.13    1.97
   1  18   5   18.14    3.92
   2  18   5   22.26    4.25
   3  18   5    3.00    1.43
  -3 -18  -5    2.54    1.58
  -4 -18  -5    3.19    1.92
  -5  19   5   16.92    3.58
  -4 -19   5   34.84    4.23
  -4  19   5   47.58    5.85
  -3  19   5   -0.32    1.29
  -3 -19   5    0.49    0.65
  -2  19   5    1.33    1.51
  -1  19   5    4.09    1.60
   0  19   5    2.24    1.90
  -4 -20   5    2.21    1.49
 -13   0   6   18.07    3.53
 -12   0   6    2.02    1.33
 -11   0   6    2.69    0.81
 -10   0   6   74.20    6.14
  -9   0   6   27.32    3.66
  -8   0   6    9.01    2.14
  -7   0   6   58.41    4.79
  -6   0   6    5.99    1.75
  -5   0   6   69.29    4.89
  -4   0   6    4.65    1.31
  -3   0   6   84.87    5.18
  -2   0   6   25.60    2.74
  -1   0   6   10.08    1.63
   0   0   6    0.72    0.46
   0   0   6   -0.72    0.75
   0   0   6    1.33    0.66
   1   0   6  187.62    8.77
   1   0   6  206.50    6.78
   1   0   6  201.55    7.58
   2   0   6  138.46    7.67
   2   0   6  155.91    6.35
   3   0   6   11.15    2.19
   3   0   6   14.37    1.82
   4   0   6    8.58    1.93
   4   0   6    9.06    1.44
   5   0   6    0.67    0.96
   5   0   6    0.37    0.45
   6   0   6  139.42    9.09
   6   0   6  154.02    8.35
   6   0   6  147.37    6.02
   7   0   6   12.84    2.93
   7   0   6   19.26    3.13
   8   0   6   48.39    5.67
   8   0   6   67.34    5.90
   9   0   6   12.97    2.76
  10   0   6    8.34    2.48
 -13  -1   6   -0.49    0.92
 -13   1   6    1.11    1.56
 -12   1   6   20.10    3.37
 -12  -1   6   19.78    3.58
 -11  -1   6   10.18    2.49
 -11   1   6   11.91    2.69
 -10  -1   6   12.97    2.64
 -10   1   6   11.13    2.42
  -9  -1   6   78.33    6.14
  -9   1   6   72.24    5.74
  -8  -1   6   -0.29    0.86
  -8   1   6    0.15    0.72
  -7  -1   6    7.72    1.83
  -7   1   6    8.41    1.89
  -6  -1   6    5.79    1.58
  -6   1   6    5.40    1.46
  -5   1   6   20.05    2.65
  -5  -1   6   19.24    2.63
  -4  -1   6  270.75   10.22
  -4   1   6  273.17   10.18
  -3  -1   6    6.41    1.37
  -3   1   6    5.06    1.35
  -2   1   6    1.90    1.00
  -2  -1   6    2.90    1.13
  -2  -1   6    3.31    0.94
  -1   1   6   16.75    2.11
  -1  -1   6   16.03    2.34
  -1  -1   6   16.14    2.08
   0  -1   6   52.96    4.20
   0  -1   6   43.97    2.73
   0   1   6   42.87    3.01
   0  -1   6   51.24    3.56
   0   1   6   51.19    3.66
   1  -1   6  111.58    6.56
   1  -1   6  116.04    4.49
   1   1   6  115.08    5.14
   1  -1   6  123.24    5.52
   1   1   6  123.08    5.85
   2  -1   6  120.15    7.12
   2   1   6  113.70    6.88
   2  -1   6  137.05    5.70
   2   1   6  128.62    5.92
   3  -1   6   22.23    3.07
   3   1   6   21.89    3.12
   3  -1   6   24.90    2.22
   3   1   6   23.55    2.45
   4   1   6    0.15    0.43
   4  -1   6   -0.55    0.98
   4   1   6    0.34    1.07
   4  -1   6    0.74    0.68
   5  -1   6   17.76    3.11
   5   1   6   15.49    2.87
   5   1   6   17.22    2.75
   5  -1   6   17.77    1.86
   5   1   6   19.18    2.24
   6  -1   6    3.83    1.59
   6   1   6    2.18    1.18
   6  -1   6    6.27    2.03
   6   1   6    3.71    1.07
   6   1   6    2.16    1.31
   7   1   6  174.48   10.42
   7  -1   6  161.06   10.25
   7  -1   6  201.27   10.07
   7   1   6  206.71   10.20
   8   1   6   28.24    4.31
   8  -1   6   21.67    3.55
   8   1   6   19.30    3.24
   9   1   6    1.26    1.15
   9  -1   6    0.65    1.22
   9   1   6    1.78    1.61
  10  -1   6   10.29    2.65
  10   1   6   10.96    2.70
 -13  -2   6   41.86    5.24
 -13   2   6   41.62    5.37
 -12  -2   6    0.64    1.46
 -12   2   6    1.54    1.52
 -11  -2   6    9.35    2.75
 -11   2   6    9.38    2.26
 -10  -2   6   89.23    7.04
 -10   2   6   89.26    6.73
  -9  -2   6    3.47    1.29
  -9   2   6    4.81    1.50
  -8  -2   6  105.67    7.00
  -8   2   6  108.31    6.87
  -7  -2   6    2.00    0.51
  -7  -2   6    2.38    1.44
  -7   2   6    2.63    1.16
  -6  -2   6   24.78    2.08
  -6  -2   6   27.37    3.20
  -6   2   6   25.29    2.97
  -5  -2   6  161.23    6.18
  -5  -2   6  177.30    8.14
  -5   2   6  174.60    8.12
  -4  -2   6   13.15    1.75
  -4  -2   6   17.79    2.46
  -4   2   6   20.93    2.66
  -3  -2   6  217.23    8.34
  -3  -2   6  251.21    9.30
  -3   2   6  228.70    9.09
  -2   2   6    3.52    1.06
  -2  -2   6    3.47    0.89
  -2  -2   6    3.95    1.06
  -1  -2   6   18.29    2.35
  -1  -2   6   19.35    2.22
  -1   2   6   21.81    2.43
   0  -2   6   97.80    5.94
   0   2   6   91.65    4.81
   0  -2   6  107.10    5.18
   0   2   6  106.29    5.63
   1  -2   6  112.45    6.70
   1  -2   6  114.31    4.11
   1   2   6  115.26    5.46
   1  -2   6  126.36    5.46
   1   2   6  118.04    5.80
   2  -2   6  168.36    8.74
   2  -2   6  197.11    6.90
   2   2   6  183.94    7.51
   3  -2   6    3.89    1.37
   3   2   6    2.64    0.84
   3   2   6    3.90    1.39
   3  -2   6    3.36    0.82
   4  -2   6    7.97    2.09
   4   2   6   13.45    2.59
   4   2   6   10.72    1.73
   4  -2   6   11.09    1.38
   5  -2   6   31.73    4.13
   5   2   6   27.97    3.63
   5   2   6   35.28    3.79
   5   2   6   35.80    3.11
   6   2   6   68.03    5.93
   6   2   6   79.76    5.93
   6   2   6   76.28    4.61
   7   2   6   30.33    4.27
   7  -2   6   36.33    4.23
   7   2   6   36.52    4.24
   8   2   6   14.16    3.04
   8  -2   6   11.26    2.46
   8   2   6    8.11    2.04
   9   2   6   13.15    2.99
   9  -2   6   17.21    3.18
   9   2   6   16.89    3.12
  10  -2   6   10.59    2.71
  10   2   6    9.74    2.50
 -13   3   6    3.94    1.65
 -12  -3   6   42.72    5.10
 -12   3   6   40.62    4.92
 -11  -3   6   31.70    4.32
 -11   3   6   33.84    4.20
 -10  -3   6    1.91    1.10
 -10   3   6    3.98    1.54
  -9  -3   6  177.58    9.99
  -9   3   6  171.88    9.14
  -8  -3   6    1.19    1.20
  -8   3   6    2.28    1.29
  -7  -3   6  149.33    8.22
  -7   3   6  141.64    7.67
  -6  -3   6   67.06    3.09
  -6  -3   6   75.98    5.53
  -6   3   6   77.21    5.38
  -5  -3   6   14.05    1.57
  -5  -3   6   17.16    2.52
  -5   3   6   15.45    2.34
  -4  -3   6  248.36    8.50
  -4  -3   6  297.41   10.66
  -4   3   6  296.98   10.69
  -3   3   6   11.56    1.89
  -3  -3   6    8.66    1.52
  -3  -3   6   12.36    2.01
  -2  -3   6  192.71    7.89
  -2  -3   6  217.28    8.35
  -2   3   6  195.32    8.31
  -1  -3   6   63.66    4.57
  -1  -3   6   70.01    4.25
  -1   3   6   70.04    4.53
   0  -3   6   33.67    2.79
   0  -3   6   24.69    3.01
   0   3   6   31.87    3.13
   1  -3   6  244.17   10.51
   1  -3   6  238.97    6.24
   1   3   6  243.64    9.01
   1  -3   6  270.53    8.30
   1   3   6  255.75    9.27
  -1   3  -6  252.41    9.16
   2  -3   6   14.01    2.48
   2  -3   6   16.57    1.70
   2   3   6   18.68    2.24
   3  -3   6   79.80    6.29
   3  -3   6   84.04    3.78
   3   3   6   87.26    5.17
   4  -3   6   32.35    4.07
   4   3   6   30.51    3.75
   4   3   6   35.28    3.71
   4  -3   6   30.33    1.98
   4   3   6   31.56    3.05
   5   3   6   41.59    4.63
   5   3   6   50.04    4.62
   5   3   6   51.04    3.89
   6   3   6  110.68    7.66
   6   3   6  127.58    7.66
   6   3   6  110.00    5.96
   7   3   6   17.93    3.22
   7   3   6   23.41    3.35
   7   3   6   20.41    2.52
   8   3   6   16.37    3.33
   8  -3   6   20.67    3.35
   8   3   6   18.55    3.23
   9   3   6    1.66    1.36
   9  -3   6    2.46    1.75
   9   3   6    2.22    1.49
  10   3   6   24.55    4.33
  10  -3   6   30.59    4.38
  10   3   6   29.57    4.28
 -13   4   6   59.71    6.28
 -12   4   6   18.51    3.40
 -11  -4   6   10.19    2.40
 -11   4   6    8.69    2.23
 -10  -4   6   44.92    5.08
 -10   4   6   38.24    4.40
  -9  -4   6   16.07    3.05
  -9   4   6   13.37    2.60
  -8  -4   6  214.25   10.87
  -8   4   6  203.28    9.71
  -7  -4   6   40.18    4.43
  -7   4   6   42.88    4.17
  -6  -4   6   31.96    3.70
  -6   4   6   32.41    3.53
  -5  -4   6  138.97    7.55
  -5   4   6  143.86    7.38
  -4   4   6   14.48    2.20
  -4  -4   6   12.57    2.21
  -3  -4   6  205.71    7.91
  -3  -4   6  226.83    8.95
  -3   4   6  218.82    9.04
  -2  -4   6    6.59    1.36
  -2  -4   6   10.64    1.90
  -2   4   6    8.91    1.63
  -1  -4   6  161.94    7.95
  -1  -4   6  189.00    7.37
  -1   4   6  189.97    8.05
   0  -4   6  236.32   10.15
   0  -4   6  258.59    8.52
   0   4   6  259.43    9.62
   0   4  -6  244.14    9.01
   1  -4   6    7.60    1.81
   1   4   6   13.20    2.01
   1  -4   6    8.16    0.79
   1  -4   6    7.99    1.22
  -1   4  -6   12.42    1.80
   2  -4   6   91.26    4.02
   2   4   6  101.39    5.69
   3  -4   6   12.56    1.27
   3   4   6   13.22    2.12
   4   4   6  163.30    8.19
   4   4   6  142.96    7.04
   5   4   6   68.64    5.96
   5   4   6   88.21    6.16
   5   4   6   81.24    5.24
   6   4   6   28.53    3.92
  -6  -4  -6   26.15    2.68
   6   4   6   25.83    3.42
   6   4   6   26.07    2.97
   7   4   6   36.63    4.64
   7   4   6   44.41    4.70
   7   4   6   40.76    3.83
   8   4   6    3.87    1.66
   8   4   6    3.32    1.71
   9   4   6   17.68    3.71
   9  -4   6   19.47    3.24
   9   4   6   16.01    3.09
  10   4   6    3.41    1.96
  10  -4   6    5.95    1.91
  10   4   6    5.79    2.12
 -13   5   6   17.75    3.44
 -12   5   6    6.90    2.14
 -11   5   6   17.13    3.06
 -10  -5   6    5.43    2.01
 -10   5   6    3.50    1.26
  -9  -5   6   84.26    6.63
  -9   5   6   70.76    5.79
  -8  -5   6    0.07    1.01
  -8   5   6   -1.24    0.93
  -7  -5   6  134.32    8.17
  -7   5   6  137.88    7.68
  -6  -5   6  100.16    6.83
  -6   5   6   99.08    6.29
  -5   5   6    3.17    1.29
  -5  -5   6    0.97    0.93
  -4  -5   6   30.37    3.35
  -4   5   6   31.21    3.33
  -3  -5   6   55.94    4.41
  -3   5   6   54.60    4.28
  -2  -5   6  223.67    8.89
  -2   5   6  241.06    9.48
  -1  -5   6   88.17    4.98
  -1   5   6  100.96    5.77
   0  -5   6   20.18    2.12
   0   5   6   28.10    3.10
   0   5  -6   22.84    2.43
   1  -5   6   59.21    2.11
   1  -5   6   64.60    3.58
   1   5   6   75.07    4.88
  -1   5  -6   68.61    4.04
   2  -5   6   11.28    1.34
   2   5   6   13.83    2.13
   3  -5   6   60.40    2.51
   3   5   6   72.37    4.94
   4   5   6   -0.05    0.52
   4   5   6    0.83    1.02
   5   5   6  104.70    7.46
  -5  -5  -6  109.95    5.84
   5   5   6  112.90    7.05
   5   5   6  111.71    6.53
   6   5   6   59.93    5.89
  -6  -5  -6   76.50    4.85
   6   5   6   74.70    5.93
   6   5   6   68.99    5.14
   7   5   6    1.75    1.30
   7   5   6    2.79    1.29
   7   5   6    0.15    0.83
   8   5   6    2.49    1.75
   8   5   6    7.84    2.22
   9   5   6   16.97    3.59
   9   5   6   15.08    3.10
  10   5   6   59.21    6.83
  10   5   6   53.13    5.92
 -12   6   6   42.67    5.17
 -11   6   6    1.50    1.58
 -10   6   6    1.06    0.82
  -9  -6   6   16.90    3.07
  -9   6   6   10.77    2.35
  -8  -6   6   61.31    5.54
  -8   6   6   62.06    5.25
  -7  -6   6   44.14    4.49
  -7   6   6   41.22    4.21
  -6  -6   6    8.27    2.12
  -6   6   6    7.70    1.74
  -5  -6   6    8.17    1.91
  -5   6   6    6.98    1.73
  -4  -6   6   12.02    2.08
  -4   6   6    8.69    1.82
  -3  -6   6   34.89    3.48
  -3   6   6   36.29    3.47
  -2  -6   6    8.91    1.82
  -2   6   6   11.44    2.07
  -1  -6   6  116.93    5.92
  -1   6   6  121.34    6.71
   0  -6   6   23.60    2.35
   0   6  -6   21.43    2.38
   0   6   6   24.47    2.87
   1  -6   6    3.12    0.91
   1   6   6    0.70    0.63
  -1   6  -6    2.14    0.81
   2   6   6    2.84    1.18
   3   6   6   69.52    5.21
   4   6   6  117.73    7.08
   4   6   6  117.20    6.71
  -5  -6  -6    6.73    1.57
   5   6   6    7.68    1.82
   5   6   6    9.35    2.30
   6   6   6   19.36    3.39
  -6  -6  -6   17.84    2.55
   6   6   6   19.23    3.05
   6   6   6   19.74    2.98
   7   6   6    7.76    2.20
   7   6   6    5.72    1.88
   8   6   6   14.32    2.98
   8   6   6   10.61    2.59
   9   6   6   24.05    4.11
   9   6   6   27.11    4.21
  10   6   6    7.41    2.53
 -12   7   6    0.21    0.94
 -11   7   6    6.80    1.94
 -10   7   6    7.69    2.21
  -9   7   6    3.05    1.58
  -8   7   6    3.86    1.39
  -7   7   6   24.06    3.13
  -6  -7   6   34.49    3.88
  -6   7   6   30.10    3.53
  -5  -7   6   10.22    2.16
  -5   7   6   10.52    1.99
  -4  -7   6    8.57    1.90
  -4   7   6   10.41    1.98
  -3  -7   6   12.30    2.06
  -3   7   6   10.62    2.03
  -2  -7   6   99.62    5.59
  -2   7   6  105.14    6.45
  -1  -7   6    6.51    1.42
  -1   7   6    5.17    1.54
   0   7  -6   54.68    3.87
   0   7   6   67.80    4.91
   1  -7   6    4.65    0.61
   1   7   6    5.93    1.45
   2   7   6   15.63    2.53
   3   7   6   52.01    4.43
   4   7   6   21.97    3.02
   4   7   6   30.92    3.64
  -5  -7  -6  109.17    6.35
   5   7   6  114.30    7.22
   5   7   6  107.54    6.83
  -6  -7  -6    1.11    0.93
   6   7   6    3.72    1.56
   6   7   6    1.89    1.38
   7   7   6   11.84    2.99
   7   7   6    5.93    1.74
   8   7   6   13.12    3.24
   8   7   6   14.26    2.75
   9   7   6   40.28    5.51
   9   7   6   43.61    5.29
 -12   8   6   22.83    3.83
 -11   8   6   13.01    2.93
 -10   8   6   14.40    2.93
  -9   8   6    0.15    0.93
  -8   8   6    9.67    2.28
  -7   8   6   26.89    3.45
  -6   8   6   51.51    4.72
  -5   8   6    2.96    1.33
  -4   8   6   10.24    2.10
  -3   8   6    9.97    2.12
  -2   8   6   10.80    2.18
  -1   8   6   94.40    6.23
   0   8   6    0.50    0.86
   1   8   6   14.71    2.46
   2   8   6   26.86    3.29
   3   8   6    0.91    0.99
   3   8   6    2.03    1.20
  -4  -8  -6  119.74    6.82
   4   8   6  114.46    7.21
   4   8   6  115.28    7.35
  -5  -8  -6    7.41    1.71
   5   8   6    8.44    1.89
   5   8   6    7.64    1.94
  -6  -8  -6   19.10    2.80
   6   8   6   20.53    3.31
   7   8   6    8.60    2.52
  -7  -8  -6    8.76    2.07
   7   8   6   11.30    2.55
   8   8   6    6.38    2.21
   8   8   6   11.29    2.87
   9   8   6   38.23    5.44
   9   8   6   40.15    5.16
 -12   9   6   18.21    3.53
 -11   9   6   47.05    5.28
 -10   9   6   19.56    3.37
  -9   9   6   20.31    3.28
  -8   9   6   22.93    3.52
  -7   9   6   49.15    4.77
  -6   9   6   30.01    3.63
  -5   9   6   97.29    6.51
  -4   9   6   62.31    5.18
  -3   9   6   30.10    3.53
  -2   9   6   94.45    6.27
  -1   9   6   10.45    2.22
   0   9   6  116.24    7.10
   1   9   6   29.41    3.67
   2   9   6   -0.33    0.74
   3   9   6  133.30    7.48
   3   9   6  129.50    7.97
  -4  -9  -6    4.27    1.56
   4   9   6    2.18    1.41
   4   9   6    3.29    1.44
  -5  -9  -6   42.97    4.27
   5   9   6   40.56    4.43
   5   9   6   49.77    5.15
  -6  -9  -6    0.35    0.83
   6   9   6    1.76    0.90
  -7  -9  -6    6.95    1.81
   7   9   6    5.32    1.95
   8   9   6   79.79    7.55
   8   9   6   79.97    7.07
   9   9   6    0.52    0.92
   9   9   6    3.73    2.10
 -11  10   6   78.00    7.02
 -10  10   6   79.38    6.78
  -9  10   6    1.27    1.59
  -8  10   6   16.53    2.92
  -7  10   6   36.59    4.24
  -6  10   6  198.14   10.00
  -5  10   6   98.30    6.75
  -4  10   6    6.96    1.77
  -3  10   6  143.71    8.10
  -2  10   6  100.97    6.71
  -1  10   6  189.27    9.45
   0  10   6    4.11    1.64
   1  10   6   58.07    5.21
   2  10   6  185.09    9.51
   3  10   6   82.67    5.86
   3  10   6   88.11    6.56
  -4 -10  -6   91.45    6.41
   4  10   6   87.22    6.28
   4  10   6   89.40    6.90
  -5 -10  -6   -0.16    0.76
   5  10   6    2.18    1.60
   5  10   6    1.00    1.21
  -6 -10  -6   13.18    2.51
   6  10   6   16.48    2.96
  -7 -10  -6   50.91    5.08
   7  10   6   53.04    5.62
   8  10   6   -0.26    1.14
   8  10   6    1.38    1.43
   9  10   6   82.82    7.59
 -11  11   6   74.37    6.91
 -10  11   6   28.88    4.14
  -9  11   6   38.07    4.67
  -8  11   6   26.29    3.77
  -7  11   6   58.60    5.57
  -6  11   6   44.35    4.71
  -5  11   6  164.05    9.07
  -4  11   6  119.34    7.59
  -3  11   6   84.05    6.40
  -2  11   6   71.56    5.86
  -1  11   6   17.00    2.82
   0  11   6  159.88    8.92
   1  11   6   49.63    5.07
   2  11   6   15.41    3.06
   3  11   6  188.30    9.15
   3  11   6  178.05   10.38
   4  11   6   24.04    3.67
  -4 -11  -6   18.85    3.00
   4  11   6   23.77    3.40
   5  11   6   26.25    4.00
  -5 -11  -6   24.09    3.44
   5  11   6   23.16    3.36
  -6 -11  -6    2.02    1.30
   6  11   6    1.34    1.32
  -7 -11  -6    7.29    2.03
   7  11   6    8.41    2.50
   8  11   6  125.62   10.06
   8  11   6  115.65    8.76
 -10  12   6   54.48    5.87
  -9  12   6    0.94    1.17
  -8  12   6    5.74    1.74
  -7  12   6   15.45    2.89
  -6  12   6  110.53    7.63
  -5  12   6   33.89    4.14
  -4  12   6    5.18    1.76
  -3  12   6   61.64    5.64
  -2  12   6   37.31    4.30
  -1  12   6   92.92    6.91
   0  12   6    2.20    1.24
   1  12   6   49.26    5.06
   2  12   6  149.71    9.14
   3  12   6   17.77    3.38
  -4 -12  -6   64.20    5.69
   4  12   6   61.07    5.36
   4  12   6   63.93    6.21
   5  12   6    4.79    1.96
  -5 -12  -6    4.37    1.65
   5  12   6    5.73    1.83
  -6 -12  -6   22.57    3.53
   6  12   6   25.00    3.79
  -7 -12  -6   29.02    4.13
   7  12   6   31.53    4.52
   8  12   6    2.09    1.94
 -10  13   6    3.35    1.31
  -9  13   6    3.49    1.94
  -8  13   6    5.27    1.88
  -7  13   6    9.50    2.38
  -6  13   6    8.78    2.36
  -5  13   6   38.57    4.61
  -4  13   6    6.19    1.93
  -3  13   6    3.41    1.57
  -2  13   6   27.62    3.83
  -1  13   6    0.09    0.83
   0  13   6   73.82    6.32
   1  13   6    0.41    0.75
   2  13   6    3.93    1.89
   3  13   6   50.85    5.49
  -4 -13  -6    2.09    1.17
   4  13   6    1.14    1.39
   4  13   6    3.02    1.43
  -5 -13  -6   35.97    4.59
   5  13   6   37.41    4.32
   5  13   6   36.15    5.03
  -6 -13  -6    1.91    1.14
   6  13   6    1.85    1.22
  -7 -13  -6    9.80    2.66
   7  13   6   11.88    2.93
  -8 -13  -6   35.53    4.92
   8  13   6   33.13    4.89
  -9  14   6   -0.29    0.94
  -8  14   6    4.82    1.68
  -7  14   6    9.46    2.44
  -6  14   6   10.85    2.59
  -5  14   6    4.02    1.86
  -4  14   6    6.81    1.90
  -3  14   6    2.74    1.01
  -2  14   6    0.57    0.73
  -1  14   6   51.81    5.47
   0  14   6    1.87    1.08
   1  14   6   10.01    2.57
   2  14   6    0.00    1.03
   3  14   6    8.35    2.52
  -4 -14  -6   53.25    5.59
   4  14   6   46.44    4.78
   4  14   6   55.38    6.19
  -5 -14  -6    6.39    2.14
   5  14   6   10.21    2.39
   5  14   6    3.64    2.01
  -6 -14  -6   13.29    2.96
   6  14   6   11.33    2.77
  -7 -14  -6    6.29    2.20
   7  14   6    7.68    2.20
  -8 -14  -6   12.33    2.99
   8  14   6   12.07    3.04
  -8  15   6   -0.64    0.98
  -7  15   6   17.33    3.53
  -6  15   6   18.03    3.24
  -5  15   6    2.52    1.14
  -4  15   6    3.90    1.73
  -3  15   6   11.07    2.70
  -2  15   6   65.27    6.29
  -1  15   6    6.48    2.44
   0  15   6   16.95    3.41
   1  15   6    6.89    2.41
   2  15   6   12.60    3.32
   3  15   6   29.52    4.64
   4  15   6   13.68    3.27
  -4 -15  -6   11.24    2.72
  -5 -15  -6   45.20    5.38
   5  15   6   42.11    4.86
   5  15   6   44.07    5.90
  -6 -15  -6    8.65    2.36
   6  15   6    9.27    2.51
  -7 -15  -6    4.73    2.06
   7  15   6    4.57    1.99
  -8 -15  -6    2.90    1.83
  -7  16   6   18.81    3.63
  -6  16   6    8.84    2.50
  -5  16   6   21.10    3.80
  -4  16   6   13.20    3.01
  -3  16   6   36.59    4.82
  -2  16   6    1.55    1.64
  -1  16   6   50.20    5.94
   0  16   6   60.81    6.45
   1  16   6    0.20    1.17
   2  16   6   12.45    2.99
   3  16   6   12.33    3.35
  -4 -16  -6   60.72    6.23
   4  16   6   71.68    7.54
  -5 -16  -6   20.47    3.78
  -6 -16  -6   10.76    2.98
  -5  17   6    0.39    1.27
  -4  17   6   49.22    5.76
  -3  17   6   12.38    3.19
  -2  17   6  120.59    9.18
  -1  17   6   55.85    6.27
   0  17   6   12.00    3.18
   1  17   6   68.49    7.28
   2  17   6    4.55    2.22
  -4 -17  -6    4.85    2.07
 -12   0   7    2.10    1.54
 -11   0   7   -1.69    1.40
 -10   0   7   -0.70    0.88
  -9   0   7    0.68    1.07
  -8   0   7   -1.01    1.02
  -7   0   7    2.43    1.15
  -6   0   7   -0.86    0.79
  -5   0   7    1.54    0.97
  -4   0   7   -0.58    0.79
  -3   0   7    0.27    0.95
  -2   0   7    0.17    0.50
  -1   0   7    1.45    1.27
  -1   0   7   -1.72    0.93
   0   0   7    0.70    0.99
   0   0   7    0.37    0.72
   1   0   7   -0.12    0.65
   1   0   7    0.07    0.94
   2   0   7    0.67    0.98
   2   0   7   -0.25    0.67
   3   0   7    2.46    1.33
   3   0   7   -0.39    0.54
   4   0   7    0.99    1.32
   4   0   7    0.80    0.62
   5   0   7    0.13    0.96
   6   0   7    1.16    0.91
   7   0   7   -0.59    1.15
   8   0   7   -0.85    1.00
   9   0   7    1.60    1.81
 -12  -1   7   11.25    2.81
 -12   1   7   10.44    2.74
 -11  -1   7    5.98    1.84
 -11   1   7    9.22    2.53
 -10  -1   7    4.15    1.63
 -10   1   7    1.31    1.22
  -9  -1   7    4.50    1.65
  -9   1   7    6.64    2.01
  -8  -1   7    0.69    1.05
  -8   1   7    0.72    1.14
  -7  -1   7    6.31    1.69
  -7   1   7    9.51    2.04
  -6  -1   7    1.62    0.82
  -6   1   7    1.84    1.00
  -5  -1   7   -0.21    0.78
  -5   1   7   -0.26    0.81
  -4  -1   7   35.89    3.43
  -4  -1   7   38.10    3.70
  -4   1   7   39.72    3.84
  -3  -1   7   32.59    3.30
  -3  -1   7   30.59    3.25
  -3   1   7   30.75    3.35
  -2  -1   7    0.75    1.01
  -2  -1   7   -0.16    0.70
  -2   1   7    1.09    0.97
  -1   1   7    0.15    0.80
  -1  -1   7    0.55    0.77
  -1  -1   7    0.25    0.71
   0   1   7    0.99    0.88
   0  -1   7   -0.13    0.84
   0  -1   7    0.43    0.71
   1  -1   7   60.02    5.11
   1   1   7   59.20    5.10
   1  -1   7   63.68    4.26
   1   1   7   61.53    4.29
   2  -1   7   10.11    2.12
   2   1   7   11.65    2.52
   2   1   7   10.64    1.81
   2  -1   7   13.07    1.90
   3  -1   7    0.04    0.54
   3  -1   7   -0.54    0.72
   3   1   7    0.51    1.53
   3   1   7   -0.46    0.63
   4  -1   7    6.02    1.92
   4   1   7    8.17    2.21
   4   1   7    5.95    1.32
   5  -1   7    3.06    1.64
   5   1   7    5.50    1.96
   6  -1   7    1.81    1.48
   6   1   7    4.18    1.80
   7   1   7   -0.20    1.36
   8   1   7   -0.23    1.24
   8   1   7    2.08    1.25
   9  -1   7   15.85    3.19
   9   1   7   12.12    2.97
 -12  -2   7    1.81    1.29
 -12   2   7    0.20    0.84
 -11  -2   7   -1.16    1.39
 -11   2   7   -0.93    1.12
 -10  -2   7   27.82    4.11
 -10   2   7   31.70    4.11
  -9  -2   7   23.94    3.70
  -9   2   7   26.85    3.69
  -8  -2   7   -0.33    0.98
  -8   2   7    0.89    1.00
  -7  -2   7    6.56    1.82
  -7   2   7    6.70    1.67
  -6  -2   7    5.80    1.16
  -6  -2   7    4.64    1.47
  -6   2   7    6.60    1.72
  -5  -2   7   97.72    5.26
  -5  -2   7  108.59    6.66
  -5   2   7  113.29    6.73
  -4  -2   7   26.69    2.85
  -4  -2   7   33.01    3.47
  -4   2   7   32.42    3.50
  -3  -2   7    2.85    1.00
  -3  -2   7    4.38    1.30
  -3   2   7    5.16    1.55
  -2   2   7    2.04    0.84
  -2  -2   7    2.73    1.17
  -2  -2   7   -0.05    0.63
  -1  -2   7   16.65    2.61
  -1   2   7   18.63    2.51
  -1  -2   7   21.27    2.58
   0  -2   7   23.27    3.14
   0  -2   7   23.08    2.53
   0   2   7   27.21    2.88
   1  -2   7    0.52    0.80
   1   2   7    0.61    0.51
   1  -2   7    0.86    0.92
   2  -2   7   29.20    3.68
   2   2   7   30.59    3.88
   2  -2   7   38.06    3.00
   2   2   7   30.19    3.07
   3  -2   7   43.02    4.79
   3   2   7   34.73    4.05
   3  -2   7   44.96    3.17
   3   2   7   38.94    3.47
   4  -2   7   44.24    5.11
   4   2   7   47.60    4.87
   4   2   7   48.23    3.85
   5  -2   7    1.64    1.54
   5   2   7    3.50    1.54
   5   2   7    1.04    0.54
   6   2   7    4.17    1.62
   7   2   7   12.76    2.87
   7   2   7   13.79    2.73
   8   2   7   12.71    3.00
   8   2   7   11.91    2.87
   9   2   7    8.75    2.84
 -12   3   7   18.30    3.51
 -11  -3   7   -1.66    1.49
 -11   3   7   -0.20    1.09
 -10  -3   7   22.44    3.65
 -10   3   7   26.09    3.77
  -9  -3   7    5.52    1.97
  -9   3   7    5.34    1.66
  -8  -3   7    4.58    1.84
  -8   3   7    4.56    1.59
  -7  -3   7    0.96    1.27
  -7   3   7    0.40    0.72
  -6  -3   7   -0.13    0.81
  -6   3   7    1.77    0.87
  -5  -3   7    1.12    0.57
  -5  -3   7    1.57    1.08
  -5   3   7    1.45    0.93
  -4  -3   7   99.10    5.43
  -4  -3   7  114.72    6.64
  -4   3   7  109.95    6.57
  -3   3   7    2.71    1.05
  -3  -3   7    1.65    0.92
  -3  -3   7    3.47    1.06
  -2  -3   7   17.78    2.56
  -2  -3   7   26.62    2.93
  -2   3   7   24.45    2.93
  -1  -3   7   10.96    2.13
  -1   3   7   16.89    2.41
  -1  -3   7   14.82    2.07
   0  -3   7    5.24    1.62
   0   3   7    5.47    1.48
   0  -3   7    5.54    1.31
   1  -3   7   84.51    6.46
   1  -3   7   95.49    5.01
   1   3   7   94.67    5.64
   2  -3   7    0.46    0.75
   2  -3   7    0.43    0.45
   2   3   7    0.88    0.75
   3  -3   7    8.11    1.99
   3   3   7   10.45    2.42
   3   3   7    9.56    1.78
   4   3   7    4.03    1.25
   4   3   7    2.07    1.25
   5   3   7    7.63    2.24
   5   3   7    5.43    1.32
   6   3   7    2.72    1.60
   7   3   7   15.48    3.21
   7   3   7   13.27    2.69
   8   3   7   -0.17    1.18
   8   3   7    1.78    1.42
 -11  -4   7    2.13    1.19
 -11   4   7    2.75    1.30
 -10  -4   7    2.46    1.53
 -10   4   7   -0.41    1.06
  -9  -4   7   12.56    2.82
  -9   4   7    9.70    2.28
  -8  -4   7    1.58    0.87
  -8   4   7    1.54    1.02
  -7  -4   7   63.40    5.74
  -7   4   7   66.71    5.47
  -6  -4   7    0.11    0.88
  -6   4   7   -0.25    1.05
  -5  -4   7    2.48    0.88
  -5   4   7    4.97    1.48
  -4   4   7   13.48    2.32
  -4  -4   7   12.71    2.35
  -3  -4   7   -0.08    0.82
  -3   4   7   -1.01    0.72
  -3  -4   7   -0.11    0.56
  -2  -4   7   33.89    3.56
  -2  -4   7   39.31    3.61
  -2   4   7   36.70    3.60
  -1  -4   7   19.06    2.68
  -1  -4   7   23.64    2.64
  -1   4   7   26.66    3.08
   0  -4   7   -0.65    0.84
   0  -4   7   -0.23    0.74
   0   4   7    0.39    0.74
   1  -4   7   11.64    2.47
   1  -4   7   13.34    1.80
   1   4   7   11.98    2.02
   2  -4   7    9.53    1.38
   2   4   7   11.15    2.06
   3   4   7    5.50    1.45
   4   4   7   40.49    4.59
   4   4   7   42.75    3.86
   5   4   7    4.59    2.02
   5   4   7    0.69    0.66
   6   4   7   16.60    3.01
   6   4   7   25.96    3.58
   6   4   7   22.94    2.85
   7   4   7    3.79    1.96
   7   4   7    4.80    1.99
   8   4   7    2.48    1.46
   8   4   7    0.46    1.14
 -11  -5   7   10.74    2.64
 -11   5   7   14.57    2.97
 -10  -5   7   15.05    3.13
 -10   5   7   12.26    2.63
  -9  -5   7    1.05    1.04
  -9   5   7    0.50    1.05
  -8  -5   7   23.85    3.70
  -8   5   7   21.17    3.18
  -7  -5   7    2.65    1.25
  -7   5   7    5.33    1.67
  -6  -5   7   41.70    4.49
  -6   5   7   46.47    4.53
  -5  -5   7    8.64    2.05
  -5   5   7    9.42    2.06
  -4   5   7    0.80    0.91
  -4  -5   7   -0.15    0.66
  -3  -5   7   39.97    3.93
  -3   5   7   39.31    3.80
  -2  -5   7   30.05    3.22
  -2   5   7   29.51    3.29
  -1  -5   7   48.14    3.85
  -1   5   7   50.35    4.37
   0  -5   7    2.75    1.04
   0   5   7    1.20    0.62
   1  -5   7    2.38    0.94
   1   5   7    2.38    1.24
   2   5   7   41.93    3.91
   3   5   7   13.37    2.18
   4   5   7    9.98    1.87
   5   5   7   -1.10    1.25
   5   5   7    0.65    0.90
   6   5   7    1.58    1.10
   6   5   7    0.93    1.21
   6   5   7    1.54    1.03
   7   5   7   36.78    5.04
   7   5   7   42.32    4.95
   8   5   7    0.49    1.36
   8   5   7    2.26    1.86
 -11   6   7   12.22    2.83
 -10   6   7    9.22    2.12
  -9  -6   7   -0.96    1.35
  -9   6   7   -0.87    0.97
  -8  -6   7    2.97    1.14
  -8   6   7    3.79    1.56
  -7  -6   7   24.23    3.61
  -7   6   7   26.23    3.49
  -6  -6   7   36.35    4.30
  -6   6   7   36.54    4.00
  -5   6   7    5.92    1.70
  -5  -6   7    3.57    1.44
  -4  -6   7    6.58    1.81
  -4   6   7    6.07    1.56
  -3  -6   7    3.51    1.41
  -3   6   7    0.84    0.85
  -2  -6   7   45.66    4.15
  -2   6   7   51.19    4.55
  -1  -6   7   20.78    2.58
  -1   6   7   24.88    3.12
   0  -6   7    2.27    0.99
   0   6   7    4.12    1.49
   1  -6   7    5.00    1.13
   1   6   7    5.44    1.58
   2   6   7    0.81    0.94
   3   6   7   50.83    4.72
   4   6   7    0.47    0.96
   5   6   7    7.06    2.39
   5   6   7    5.14    1.53
   6   6   7    4.99    1.47
   6   6   7    6.25    2.25
   6   6   7    7.13    2.15
   7   6   7    4.26    2.01
   7   6   7    2.93    1.64
   8   6   7   14.29    3.52
   8   6   7   19.55    3.54
 -11   7   7   15.81    3.29
 -10   7   7    1.48    1.35
  -9   7   7   12.92    2.60
  -8   7   7    0.45    0.78
  -7  -7   7    1.74    1.35
  -7   7   7    1.03    1.13
  -6  -7   7   -0.02    0.84
  -6   7   7    2.35    1.13
  -5  -7   7   29.77    3.72
  -5   7   7   32.27    3.75
  -4  -7   7    2.78    1.37
  -4   7   7    3.22    1.05
  -3  -7   7   26.33    3.18
  -3   7   7   28.51    3.42
  -2  -7   7    6.10    1.51
  -2   7   7    4.34    1.42
  -1  -7   7    8.49    1.69
  -1   7   7    5.80    1.55
   0   7   7   43.31    4.27
   1   7   7    0.10    0.63
   2   7   7   24.34    3.12
   3   7   7    3.85    1.41
   4   7   7    0.89    1.08
   5   7   7    4.01    1.49
   5   7   7    2.99    1.59
   6   7   7   16.23    3.27
   6   7   7   16.15    2.70
   6   7   7   14.87    3.02
   7   7   7    2.33    1.62
   7   7   7    2.05    1.32
   7   7   7    3.82    1.51
   8   7   7   16.19    3.52
   8   7   7   15.51    3.17
 -11   8   7    4.43    2.31
 -10   8   7    1.92    1.48
  -9   8   7   -0.56    0.95
  -8   8   7   47.94    5.07
  -7   8   7   12.22    2.46
  -6   8   7   28.80    3.67
  -5   8   7    3.33    1.56
  -4   8   7    1.80    0.81
  -3   8   7   28.09    3.53
  -2   8   7    5.50    1.59
  -1   8   7    6.77    1.90
   0   8   7   44.69    4.41
   1   8   7   17.35    2.74
   2   8   7   -0.20    0.94
   3   8   7    1.39    1.08
   4   8   7    1.34    0.74
   5   8   7   75.78    6.31
   5   8   7   59.49    5.66
   6   8   7   14.77    3.37
   6   8   7   14.97    2.88
   6   8   7   16.17    2.98
   7   8   7    4.78    2.26
   7   8   7    2.38    1.64
   7   8   7    3.15    1.50
   8   8   7   -1.40    1.06
 -10   9   7    2.09    1.35
  -9   9   7   26.25    3.93
  -8   9   7    7.05    2.28
  -7   9   7    3.84    1.58
  -6   9   7   15.42    2.74
  -5   9   7   19.99    3.14
  -4   9   7   10.61    2.39
  -3   9   7    1.02    1.01
  -2   9   7   21.39    3.08
  -1   9   7   67.57    5.65
   0   9   7   43.50    4.43
   1   9   7    4.17    1.48
   2   9   7    1.09    1.09
   3   9   7    1.72    1.16
   4   9   7   19.68    3.11
   5   9   7    3.80    1.82
   5   9   7    0.85    1.30
   6   9   7   15.15    2.96
   6   9   7   19.01    3.49
   7   9   7    9.25    2.89
   7   9   7    7.27    2.17
   7   9   7    9.88    2.44
 -10  10   7    2.33    1.65
  -9  10   7   -0.24    0.78
  -8  10   7    9.68    2.41
  -7  10   7    5.74    2.15
  -6  10   7    2.85    1.41
  -5  10   7    0.01    0.66
  -4  10   7    0.22    0.70
  -3  10   7    5.80    1.84
  -2  10   7    1.66    0.82
  -1  10   7    0.23    1.32
   0  10   7    5.49    1.65
   1  10   7    4.61    1.73
   2  10   7   -0.41    1.00
   3  10   7    1.10    1.17
   4  10   7    0.48    0.89
   5  10   7   11.73    2.70
   5  10   7   13.06    2.76
   6  10   7    1.77    1.38
   6  10   7    3.65    1.54
   7  10   7    0.40    1.00
   7  10   7   -0.42    1.01
   8  10   7    1.29    1.50
  -9  11   7    5.30    1.87
  -8  11   7   -0.04    1.13
  -7  11   7    2.33    1.28
  -6  11   7    0.69    0.97
  -5  11   7   -1.59    0.89
  -4  11   7    0.63    0.86
  -3  11   7    0.83    1.25
  -2  11   7    0.52    1.18
  -1  11   7    5.60    1.91
   0  11   7    5.45    1.99
   1  11   7    4.30    1.59
   2  11   7   -2.07    1.34
   3  11   7   -0.70    1.02
   4  11   7    0.13    0.95
   5  11   7    1.95    1.39
   5  11   7    1.06    0.98
   6  11   7    1.82    1.58
   6  11   7    2.07    1.53
   7  11   7   -0.74    1.08
   7  11   7    1.72    1.46
   8  11   7    0.53    1.11
  -8  12   7   24.37    3.88
  -7  12   7    8.07    2.30
  -6  12   7    5.39    1.95
  -5  12   7    4.82    1.66
  -4  12   7    1.86    1.20
  -3  12   7   19.26    3.17
  -2  12   7    2.43    1.45
  -1  12   7    0.07    0.76
   0  12   7   30.12    4.10
   1  12   7    8.54    2.37
   2  12   7    1.61    1.29
   3  12   7    4.43    1.89
   4  12   7   -1.06    1.32
   5  12   7   24.23    3.80
   5  12   7   23.22    3.90
   6  12   7   11.40    2.86
   6  12   7    9.44    2.44
   7  12   7   -2.21    1.79
   7  12   7    3.95    1.83
  -8  13   7    2.52    1.16
  -7  13   7    1.46    1.52
  -6  13   7    7.45    2.28
  -5  13   7   11.91    2.61
  -4  13   7    7.79    2.25
  -3  13   7    8.21    2.33
  -2  13   7   14.27    2.86
  -1  13   7   35.98    4.59
   0  13   7   25.43    3.92
   1  13   7    0.24    1.01
   2  13   7    5.20    1.82
   3  13   7   -0.41    1.02
   4  13   7    3.07    1.52
   5  13   7   -0.87    1.21
   6  13   7   10.24    2.76
   6  13   7    9.23    2.70
   7  13   7    0.89    1.05
  -7  14   7    1.43    1.09
  -6  14   7   14.82    3.21
  -5  14   7    7.80    2.19
  -4  14   7    5.65    2.07
  -3  14   7    8.80    2.32
  -2  14   7   12.82    2.99
  -1  14   7    4.95    1.95
   0  14   7    4.19    1.76
   1  14   7    1.65    1.60
   2  14   7    5.99    2.04
   3  14   7   22.13    4.04
   4  14   7    0.94    1.12
   5  14   7   17.99    3.71
   6  14   7    0.42    1.24
  -5  15   7    8.43    2.41
  -4  15   7    0.55    1.28
  -3  15   7   46.02    5.42
  -2  15   7    3.32    2.06
  -1  15   7    1.74    1.17
   0  15   7   11.20    2.84
   1  15   7    1.97    1.53
   2  15   7   49.35    6.00
   3  15   7    3.67    2.06
  -2  16   7   29.64    4.61
  -1  16   7    4.12    1.88
 -10   0   8   52.71    5.63
  -9   0   8    7.82    2.22
  -8   0   8   14.92    2.86
  -7   0   8  283.24   12.50
  -6   0   8    3.47    1.51
  -5   0   8   51.83    4.86
  -4   0   8    6.98    1.78
  -3   0   8  105.63    6.66
  -3   0   8   91.23    6.08
  -2   0   8  348.65   13.29
  -2   0   8  385.37   13.25
  -1   0   8   11.99    2.45
  -1   0   8   14.34    2.30
   0   0   8   57.58    5.38
   0   0   8   64.02    4.72
   1   0   8   17.54    3.16
   1   0   8   20.07    2.66
   2   0   8   24.42    3.60
   2   0   8   26.84    2.90
   3   0   8   63.61    6.07
   4   0   8   68.51    6.43
   5   0   8   54.17    6.01
   6   0   8   28.64    4.48
   7   0   8    7.71    2.42
 -10  -1   8    3.99    1.81
 -10   1   8    5.06    2.01
  -9  -1   8   33.29    4.37
  -9   1   8   26.72    3.91
  -8  -1   8  127.10    8.41
  -8   1   8  128.75    8.28
  -7  -1   8    0.01    0.83
  -7   1   8    1.28    0.87
  -6  -1   8  111.55    7.29
  -6   1   8  102.12    7.01
  -5  -1   8    4.42    1.24
  -5  -1   8    4.18    1.65
  -5   1   8    4.47    1.52
  -4  -1   8   12.85    2.26
  -4  -1   8   16.62    2.74
  -4   1   8   14.91    2.43
  -3  -1   8   60.53    4.94
  -3  -1   8   71.58    5.40
  -3   1   8   58.16    4.79
  -2  -1   8   61.00    5.11
  -2  -1   8   67.71    5.07
  -2   1   8   71.09    5.30
  -1  -1   8  153.30    8.57
  -1   1   8  147.61    8.49
  -1  -1   8  178.81    8.27
  -1   1   8  179.34    8.44
   0  -1   8    1.27    1.22
   0   1   8    1.00    0.99
   0  -1   8    0.64    1.12
   0   1   8   -0.15    0.85
   1   1   8    3.30    1.25
   1  -1   8    3.19    1.58
   1   1   8    3.25    1.26
   1  -1   8    3.34    1.19
   2  -1   8   20.38    3.35
   2   1   8   19.37    3.29
   2  -1   8   24.43    2.76
   2   1   8   27.25    2.99
   3  -1   8   87.26    7.24
   3   1   8   84.19    6.87
   3   1   8  105.11    5.86
   4  -1   8   68.03    6.60
   4   1   8   70.12    6.48
   5  -1   8    7.86    2.59
   5   1   8    3.54    1.86
   6  -1   8    7.85    2.34
   6   1   8    8.66    2.41
   7   1   8   19.32    3.97
 -10  -2   8   18.99    3.55
 -10   2   8   19.84    3.53
  -9  -2   8    3.35    1.96
  -9   2   8    1.73    0.82
  -8  -2   8    7.40    2.06
  -8   2   8    4.83    1.58
  -7  -2   8   93.19    6.95
  -7   2   8   94.10    6.85
  -6  -2   8    8.73    2.11
  -6   2   8    9.96    2.14
  -5  -2   8   11.68    2.47
  -5   2   8    9.96    2.11
  -4  -2   8    0.64    0.69
  -4  -2   8   -0.49    0.59
  -4   2   8    0.32    0.73
  -3  -2   8   21.91    3.04
  -3  -2   8   20.82    2.87
  -3   2   8   26.17    3.29
  -2  -2   8   89.62    6.32
  -2  -2   8  100.26    6.24
  -2   2   8  102.57    6.45
  -1  -2   8   27.87    3.59
  -1  -2   8   33.84    3.40
  -1   2   8   32.44    3.59
   0  -2   8   18.93    2.95
   0  -2   8   21.21    2.69
   0   2   8   26.22    3.07
   1  -2   8   -0.15    0.86
   1   2   8   -0.19    0.84
   1   2   8   -0.60    0.76
   1  -2   8    0.10    0.89
   2  -2   8   32.20    4.38
   2   2   8   31.73    4.16
   2   2   8   30.67    3.24
   3  -2   8   24.91    3.90
   3   2   8   21.29    3.56
   3   2   8   22.42    2.80
   4  -2   8   76.40    7.08
   4   2   8   71.92    6.57
   5  -2   8    9.53    2.51
   5   2   8   14.24    2.93
   6   2   8    0.34    1.15
   7   2   8    9.49    2.74
 -10  -3   8    0.63    1.91
 -10   3   8    2.69    1.41
  -9  -3   8    2.20    1.62
  -9   3   8    1.06    1.26
  -8  -3   8   10.55    2.60
  -8   3   8    8.08    2.17
  -7  -3   8   11.17    2.58
  -7   3   8    2.85    1.28
  -6  -3   8   35.99    4.32
  -6   3   8   32.60    3.92
  -5  -3   8    7.58    1.95
  -5   3   8    9.27    2.07
  -4  -3   8   12.12    2.14
  -4  -3   8   12.01    2.27
  -4   3   8   13.63    2.45
  -3  -3   8    7.60    1.73
  -3  -3   8    8.98    1.88
  -3   3   8    8.25    1.85
  -2  -3   8   24.64    3.35
  -2  -3   8   30.76    3.32
  -2   3   8   30.23    3.45
  -1  -3   8   16.87    2.72
  -1   3   8   18.80    2.70
  -1  -3   8   18.37    2.42
   0  -3   8   44.89    4.87
   0  -3   8   53.36    4.19
   0   3   8   46.74    4.22
   1  -3   8   19.80    3.36
   1  -3   8   23.39    2.64
   1   3   8   21.25    2.86
   2  -3   8    1.43    1.17
   2   3   8    1.82    1.51
   2   3   8    3.24    1.26
   3  -3   8   49.48    5.72
   3   3   8   54.24    5.70
   3   3   8   58.90    4.63
   4   3   8    3.16    1.53
   4   3   8    8.34    1.84
   5   3   8   33.20    4.60
   6   3   8   13.68    3.16
   7   3   8   -0.61    1.91
 -10  -4   8    6.94    2.32
 -10   4   8   11.09    2.70
  -9  -4   8    4.04    1.99
  -9   4   8    4.27    1.46
  -8  -4   8    4.70    1.85
  -8   4   8    2.16    1.48
  -7  -4   8    8.42    2.32
  -7   4   8    7.15    1.82
  -6  -4   8   29.89    3.93
  -6   4   8   23.74    3.32
  -5  -4   8   43.10    4.65
  -5   4   8   45.59    4.54
  -4  -4   8    3.35    1.48
  -4   4   8    3.29    0.99
  -3  -4   8    2.66    0.81
  -3   4   8    3.44    1.29
  -3  -4   8    3.29    1.46
  -2  -4   8    0.50    0.94
  -2   4   8    2.53    1.13
  -2  -4   8    3.31    1.29
  -1  -4   8   59.84    5.31
  -1  -4   8   70.50    5.02
  -1   4   8   72.62    5.39
   0  -4   8   17.10    3.12
   0   4   8   14.96    2.42
   0  -4   8   13.68    2.06
   1   4   8    6.80    1.69
   2   4   8   39.67    3.93
   3   4   8    8.04    2.40
   3   4   8    9.63    2.03
   4   4   8   23.43    3.78
   4   4   8   27.85    3.24
   5   4   8    1.09    1.13
   6   4   8   20.66    3.80
 -10  -5   8   23.35    4.13
 -10   5   8   20.04    3.50
  -9  -5   8    2.37    1.66
  -9   5   8    0.55    0.93
  -8  -5   8    9.41    2.66
  -8   5   8    7.98    2.30
  -7  -5   8   30.05    4.14
  -7   5   8   27.47    3.71
  -6  -5   8   65.54    6.10
  -6   5   8   60.26    5.42
  -5  -5   8    0.97    1.12
  -5   5   8   -0.92    1.24
  -4  -5   8   48.10    4.82
  -4   5   8   49.23    4.72
  -3  -5   8   36.34    4.03
  -3   5   8   39.43    4.09
  -2   5   8    8.80    2.05
  -2  -5   8    7.03    1.82
  -1  -5   8    9.04    1.77
  -1   5   8    9.72    2.06
   0  -5   8   29.44    3.04
   0   5   8   27.86    3.37
   1   5   8  125.37    7.25
   2   5   8   29.44    3.41
   3   5   8   10.91    2.18
   4   5   8    5.91    2.28
   4   5   8    5.97    1.55
   5   5   8   25.77    4.14
   6   5   8   31.48    4.75
 -10  -6   8   53.10    6.17
  -9  -6   8   43.68    5.34
  -9   6   8   34.30    4.42
  -8  -6   8   17.39    3.14
  -8   6   8   14.45    2.89
  -7  -6   8   16.44    3.28
  -7   6   8   14.89    2.74
  -6  -6   8    5.43    1.77
  -6   6   8    5.66    1.73
  -5  -6   8  164.78    9.57
  -5   6   8  154.27    8.85
  -4  -6   8   69.65    5.94
  -4   6   8   70.71    5.70
  -3  -6   8   17.70    2.88
  -3   6   8   12.98    2.43
  -2  -6   8   15.82    2.63
  -2   6   8   15.20    2.59
  -1  -6   8    9.67    1.81
  -1   6   8    8.78    2.09
   0   6   8  109.94    7.01
   1   6   8    8.11    2.14
   2   6   8   68.33    5.41
   3   6   8   42.50    4.29
   4   6   8   -0.53    0.78
   4   6   8   -1.18    0.99
   5   6   8   17.30    3.39
   5   6   8   16.01    2.69
   6   6   8    9.02    2.62
  -9   7   8   33.93    4.46
  -8  -7   8   33.59    4.64
  -8   7   8   27.13    3.87
  -7  -7   8   12.85    2.63
  -7   7   8   16.23    2.92
  -6  -7   8  104.64    7.58
  -6   7   8  101.62    7.19
  -5   7   8   21.12    3.47
  -5  -7   8   21.09    3.35
  -4  -7   8  106.87    7.22
  -4   7   8  124.96    7.76
  -3  -7   8   52.42    4.85
  -3   7   8   61.51    5.24
  -2  -7   8    6.71    1.84
  -2   7   8    4.06    1.61
  -1   7   8   52.76    4.92
   0   7   8    1.18    1.48
   1   7   8  151.44    8.62
   2   7   8   39.22    4.16
   3   7   8    4.78    1.76
   4   7   8   29.36    3.65
   5   7   8    3.13    1.62
   5   7   8    0.96    0.91
   6   7   8   55.72    6.44
  -9   8   8   27.75    3.99
  -8   8   8   34.47    4.45
  -7   8   8   29.91    4.22
  -6   8   8    5.20    1.88
  -5   8   8   93.93    6.95
  -4   8   8   29.11    3.75
  -3   8   8   62.22    5.43
  -2   8   8   38.07    4.30
  -1   8   8    0.08    0.76
   0   8   8  109.38    7.29
   1   8   8    9.22    2.18
   2   8   8   65.82    5.60
   3   8   8   12.42    2.47
   4   8   8    2.78    1.47
   5   8   8   51.44    5.18
  -8   9   8   14.64    2.95
  -7   9   8    2.76    1.57
  -6   9   8    9.51    2.34
  -5   9   8   13.65    2.81
  -4   9   8   69.51    5.98
  -3   9   8    1.48    1.04
  -2   9   8   23.16    3.42
  -1   9   8   33.69    4.05
   0   9   8    4.75    1.54
   1   9   8   61.69    5.66
   2   9   8    7.63    2.01
   3   9   8   24.73    3.70
   4   9   8   22.31    3.46
   5   9   8    1.66    1.68
   6   9   8   39.96    4.75
  -7  10   8    2.11    1.45
  -6  10   8   10.99    2.50
  -5  10   8    4.86    1.85
  -4  10   8    5.97    1.93
  -3  10   8   84.45    6.65
  -2  10   8    1.53    1.05
  -1  10   8    1.27    1.19
   0  10   8   24.94    3.55
   1  10   8    7.08    1.92
   2  10   8   31.67    4.23
   3  10   8   11.37    2.79
   4  10   8   16.73    3.26
   5  10   8   58.18    6.04
   6  10   8    3.01    1.46
  -7  11   8    2.66    1.51
  -6  11   8    1.79    1.40
  -5  11   8    1.46    1.31
  -4  11   8   36.24    4.54
  -3  11   8    7.16    2.21
  -2  11   8   31.12    4.24
  -1  11   8   27.69    3.88
   0  11   8    4.13    1.61
   1  11   8   31.37    4.24
   2  11   8   53.31    5.60
   3  11   8   51.44    5.84
   4  11   8   10.53    2.94
   5  11   8    6.56    2.36
   6  11   8   30.97    4.60
  -6  12   8    9.94    2.37
  -5  12   8   20.23    3.52
  -4  12   8    1.38    1.56
  -3  12   8   76.53    6.73
  -2  12   8    9.73    2.63
  -1  12   8    3.74    1.52
   0  12   8   38.30    4.77
   1  12   8    1.34    1.36
   2  12   8   35.16    4.56
   3  12   8    1.26    1.69
   4  12   8   10.28    2.62
   5  12   8   50.65    5.74
  -4  13   8   62.68    6.16
  -3  13   8   15.06    3.06
  -2  13   8   21.30    3.75
  -1  13   8   48.60    5.45
   0  13   8    8.51    2.59
   1  13   8   47.34    5.43
   2  13   8    5.91    2.19
   3  13   8    8.41    2.40
  -9   0   9    0.44    1.00
  -8   0   9   -0.14    1.06
  -7   0   9    1.37    1.40
  -6   0   9   -1.17    1.19
  -5   0   9   -0.33    0.85
  -4   0   9    0.43    0.68
  -4   0   9   -0.28    0.79
  -3   0   9    0.64    1.12
  -3   0   9    1.02    0.86
  -2   0   9    0.04    0.64
  -2   0   9    0.21    0.78
  -1   0   9   -0.79    1.01
  -1   0   9   -0.43    0.62
   0   0   9    1.43    1.24
   0   0   9    0.14    0.88
   1   0   9    0.85    1.00
   2   0   9   -1.13    1.21
   3   0   9    0.50    1.34
   4   0   9    0.38    1.41
   5   0   9    2.39    1.79
  -9  -1   9    0.29    0.99
  -9   1   9   -0.79    1.02
  -8  -1   9    2.13    1.20
  -8   1   9    2.23    1.19
  -7  -1   9    1.44    1.32
  -7   1   9   -0.59    1.22
  -6  -1   9   10.37    2.34
  -6   1   9    8.34    2.17
  -5  -1   9   22.33    3.38
  -5   1   9   22.75    3.30
  -4   1   9    0.12    0.54
  -4  -1   9    0.91    1.11
  -4   1   9   -0.44    0.83
  -3  -1   9    2.95    1.34
  -3   1   9    2.28    1.37
  -3  -1   9    0.44    0.68
  -3   1   9    3.02    1.32
  -2  -1   9    3.96    1.37
  -2   1   9    6.40    1.78
  -2  -1   9    5.13    1.45
  -2   1   9    6.24    1.76
  -1  -1   9   -0.24    0.64
  -1   1   9    1.48    1.17
  -1  -1   9    0.24    0.85
  -1   1   9   -0.03    0.71
   0  -1   9    7.36    2.21
   0   1   9    6.11    1.94
   0  -1   9    6.64    1.63
   0   1   9    8.63    2.05
   1  -1   9    4.50    1.85
   1   1   9    4.11    1.68
   1   1   9    3.93    1.30
   2  -1   9   12.90    2.87
   2   1   9   14.20    3.11
   3  -1   9   10.57    2.83
   3   1   9    8.58    2.46
   4  -1   9    1.49    1.25
   4   1   9    1.19    1.07
   5  -1   9    0.75    1.54
   5   1   9   -1.46    1.27
  -9  -2   9    6.21    2.04
  -8  -2   9    2.95    1.43
  -8   2   9    2.99    1.47
  -7  -2   9    3.26    1.24
  -7   2   9    2.07    1.69
  -6  -2   9    0.87    1.25
  -6   2   9    2.13    1.39
  -5  -2   9   25.72    3.72
  -5   2   9   23.82    3.52
  -4  -2   9   45.85    4.63
  -4   2   9   46.86    4.73
  -3  -2   9    5.19    1.75
  -3  -2   9    6.16    1.85
  -3   2   9    4.70    1.67
  -2  -2   9    4.40    1.63
  -2  -2   9    3.21    1.25
  -2   2   9    7.57    1.94
  -1  -2   9    1.55    0.88
  -1   2   9    1.36    1.29
  -1  -2   9    0.02    0.67
  -1   2   9    1.36    0.78
   0  -2   9   16.62    3.10
   0   2   9   15.93    2.96
   0   2   9   19.89    2.78
   1  -2   9   21.09    3.61
   1   2   9   16.94    3.48
   1   2   9   22.36    3.05
   2  -2   9    0.83    1.02
   2   2   9    2.27    1.42
   3  -2   9    3.23    2.04
   3   2   9   -0.23    1.08
   4  -2   9   18.42    3.80
   4   2   9   15.42    3.04
   5   2   9    1.94    1.57
  -9  -3   9    0.82    0.86
  -8  -3   9   10.86    2.81
  -8   3   9    6.67    2.16
  -7  -3   9    3.16    1.29
  -7   3   9    3.59    1.44
  -6  -3   9    3.29    1.50
  -6   3   9    6.21    1.80
  -5  -3   9   39.77    4.58
  -5   3   9   37.90    4.32
  -4  -3   9    0.00    0.87
  -4   3   9    1.36    0.91
  -3  -3   9    0.83    0.90
  -3   3   9   -0.40    0.91
  -2  -3   9    3.02    1.69
  -2  -3   9    2.46    0.98
  -2   3   9    4.21    1.39
  -1  -3   9    2.48    1.21
  -1  -3   9    2.83    1.31
  -1   3   9    0.43    0.75
   0   3   9    0.28    0.59
   0  -3   9    2.78    1.82
   0   3   9    4.01    2.19
   1  -3   9   26.74    4.27
   1   3   9   27.77    4.09
   1   3   9   36.24    3.85
   2  -3   9    0.98    0.98
   2   3   9    2.23    1.39
   3   3   9   19.00    3.42
   4   3   9    3.17    1.63
  -9  -4   9   -0.48    0.95
  -8  -4   9    5.45    1.88
  -8   4   9    7.19    2.15
  -7  -4   9   19.04    3.65
  -7   4   9   18.02    3.18
  -6  -4   9    1.37    1.14
  -6   4   9    0.41    1.09
  -5  -4   9    4.93    1.85
  -5   4   9    5.08    1.57
  -4  -4   9    1.86    1.01
  -4   4   9    3.17    1.55
  -3  -4   9    0.88    1.14
  -3   4   9   -0.38    0.67
  -2  -4   9   44.49    4.43
  -2   4   9   44.77    4.46
  -1   4   9    1.76    1.00
   0   4   9    9.45    2.14
   1   4   9    2.50    1.65
   1   4   9    0.15    0.70
   2   4   9    1.70    1.61
   2   4   9    1.96    0.96
   3   4   9    9.33    2.61
   4   4   9    1.35    1.16
  -9  -5   9    0.86    1.44
  -8  -5   9   22.46    3.88
  -8   5   9   21.60    3.52
  -7  -5   9   13.59    2.88
  -7   5   9   10.69    2.68
  -6  -5   9   17.29    3.21
  -6   5   9   18.83    3.27
  -5  -5   9   -1.16    1.11
  -5   5   9    1.90    1.27
  -4  -5   9    6.61    2.20
  -4   5   9    4.56    1.43
  -3  -5   9   39.73    4.40
  -3   5   9   40.85    4.41
  -2   5   9    5.47    1.85
  -2  -5   9    2.50    1.42
  -1   5   9   15.56    2.66
   0   5   9    2.43    1.56
   1   5   9   11.54    2.27
   2   5   9   19.11    3.62
   2   5   9   21.54    3.04
   3   5   9    0.69    1.21
   4   5   9    5.31    2.18
  -8  -6   9    7.44    2.51
  -7  -6   9   21.15    3.76
  -7   6   9   17.87    3.24
  -6  -6   9    2.62    1.79
  -6   6   9    2.95    1.30
  -5  -6   9    2.62    1.68
  -5   6   9    0.21    0.74
  -4  -6   9    6.43    1.81
  -4   6   9    7.99    2.09
  -3   6   9   18.35    2.96
  -3  -6   9   13.05    2.69
  -2   6   9   13.10    2.51
  -1   6   9    2.89    1.36
   0   6   9    0.39    1.38
   1   6   9   11.69    2.33
   2   6   9   13.65    2.59
   3   6   9   18.24    3.61
   3   6   9   17.81    2.86
  -8  -7   9    1.48    1.33
  -7  -7   9    0.09    1.35
  -7   7   9    4.64    1.71
  -6  -7   9   12.91    2.87
  -6   7   9   11.29    2.64
  -5  -7   9    1.08    1.27
  -5   7   9    3.50    1.64
  -4   7   9   11.70    2.45
  -4  -7   9   12.92    2.59
  -3   7   9    2.13    0.95
  -2   7   9   -1.14    1.25
  -1   7   9    1.45    1.00
   0   7   9   15.48    2.79
   1   7   9    0.64    0.90
   2   7   9   22.87    3.30
   3   7   9    2.20    1.25
  -6   8   9   20.13    3.44
  -5   8   9    0.08    1.00
  -4   8   9    0.49    1.52
  -3   8   9   20.63    3.37
  -2   8   9    7.98    2.21
  -1   8   9   40.15    4.51
   0   8   9    0.58    0.90
   1   8   9    0.61    0.91
   2   8   9    2.24    1.33
   3   8   9    0.86    1.15
  -5   9   9    3.30    1.71
  -4   9   9    8.43    2.22
  -3   9   9   11.18    2.64
  -2   9   9    2.98    1.20
  -1   9   9   10.44    2.57
   0   9   9   25.85    3.73
   1   9   9   -0.06    0.78
   2   9   9    0.36    0.81
   3   9   9    2.04    1.47
   4   9   9    8.35    2.11
  -4  10   9    1.13    1.42
  -3  10   9    4.96    2.08
  -2  10   9    3.15    1.39
  -1  10   9    4.02    1.65
   0  10   9   -0.13    0.97
   1  10   9    0.85    0.73
   2  10   9   -0.30    0.99
   3  10   9   -0.66    1.09
   4  10   9    1.26    1.10
  -2  11   9    3.71    1.72
  -1  11   9    1.15    1.23
   0  11   9    4.76    1.95
   1  11   9   -0.37    0.89
   2  11   9   -0.39    0.89
  -7   0  10    3.76    1.77
  -6   0  10    5.53    1.97
  -5   0  10   21.64    3.39
  -4   0  10   25.70    3.75
  -3   0  10   17.69    3.01
  -2   0  10    1.35    1.40
  -2   0  10    2.05    1.27
  -1   0  10    4.19    1.78
   0   0  10   76.72    6.84
   1   0  10   21.52    3.83
   2   0  10   20.62    3.80
   3   0  10    0.60    1.34
  -7  -1  10    5.96    2.16
  -7   1  10    7.63    2.26
  -6  -1  10   13.43    2.89
  -6   1  10   19.48    3.38
  -5  -1  10   48.47    5.11
  -5   1  10   45.32    4.99
  -4  -1  10   12.66    2.66
  -4   1  10   11.18    2.44
  -3  -1  10    1.62    1.16
  -3   1  10    0.29    0.87
  -2   1  10    4.73    1.78
  -2  -1  10    5.65    1.74
  -2   1  10    6.00    1.90
  -1  -1  10   18.12    3.40
  -1   1  10   15.73    2.94
  -1   1  10   20.32    3.10
   0  -1  10   10.40    2.76
   0   1  10   11.32    2.69
   1  -1  10   47.53    5.71
   1   1  10   50.14    5.67
   2  -1  10    6.26    2.14
   2   1  10    7.40    2.00
   3  -1  10   -0.22    0.97
  -7  -2  10   14.48    2.91
  -6  -2  10   28.23    4.25
  -6   2  10   26.27    3.90
  -5  -2  10   15.96    3.21
  -5   2  10   16.93    3.03
  -4  -2  10   49.31    5.15
  -4   2  10   51.45    5.24
  -3   2  10    1.68    1.20
  -3  -2  10    2.19    1.07
  -3   2  10    3.78    1.42
  -2   2  10    3.65    1.76
  -2   2  10    6.58    1.96
  -1  -2  10    8.51    2.39
  -1   2  10   11.37    2.74
  -1   2  10   13.84    2.68
   0  -2  10   44.24    5.41
   0   2  10   42.96    5.12
   1  -2  10   22.59    4.17
   1   2  10   28.48    4.34
   2  -2  10    4.94    2.00
   2   2  10    4.51    1.86
  -7  -3  10   13.89    3.21
  -6  -3  10   17.91    3.40
  -6   3  10   14.60    2.76
  -5  -3  10   64.42    6.16
  -5   3  10   61.59    5.84
  -4  -3  10   14.08    2.90
  -4   3  10   12.05    2.44
  -3   3  10   40.99    4.59
  -2   3  10    5.64    2.00
  -2   3  10    6.15    1.74
  -1  -3  10   14.66    3.43
  -1   3  10   19.34    3.47
  -1   3  10   19.13    2.97
   0   3  10   38.54    4.90
   0   3  10   46.73    4.69
   1   3  10   11.26    2.82
   2   3  10   19.97    3.95
  -7  -4  10   22.84    4.10
  -6  -4  10   37.01    4.94
  -6   4  10   28.93    3.99
  -5  -4  10    5.36    1.86
  -5   4  10    7.55    2.02
  -4  -4  10   47.38    5.20
  -4   4  10   45.52    4.91
  -3   4  10    1.37    1.09
  -2   4  10   61.20    5.59
  -1   4  10   36.62    4.80
  -1   4  10   47.86    4.91
   0   4  10    8.23    2.05
   0   4  10    9.46    2.59
   1   4  10   17.90    3.40
   2   4  10    7.17    2.33
  -7  -5  10   14.26    3.38
  -6  -5  10    3.78    2.03
  -5  -5  10    5.43    2.17
  -5   5  10    4.85    1.87
  -4   5  10   18.03    3.24
  -3   5  10   51.30    5.25
  -2   5  10    4.59    1.58
  -1   5  10   24.47    3.63
   0   5  10   13.11    2.59
   1   5  10    8.99    2.45
  -7  -6  10   10.51    2.78
  -6  -6  10    0.61    0.89
  -4   6  10    2.25    1.35
  -3   6  10   15.11    2.89
  -2   6  10   53.01    5.35
  -1   6  10    5.59    1.76
   0   6  10    6.47    2.01
   1   6  10    0.30    0.94
  -7  -7  10    4.83    2.27
  -6  -7  10    7.11    2.31
  -3   7  10   27.51    3.94
  -2   7  10    3.49    1.44
  -1   7  10   19.39    3.34
   0   7  10    1.94    0.91
   1   7  10    8.97    2.09
  -2   8  10   43.62    5.05
  -1   8  10    2.25    1.42
   0   8  10   13.38    2.66
   1   8  10    1.07    1.10
  -4   0  11    0.46    1.25
   0   0  11   -0.14    0.99
  -5  -1  11   13.83    2.95
  -4   1  11    6.12    1.91
   0   1  11    6.87    2.34
  -3   2  11    1.68    1.25
  -1   2  11    3.96    1.90
  -3   3  11    6.02    1.97
  -1   3  11   -0.98    1.16
  -2   4  11    7.42    2.18
  -2   5  11    6.00    2.08
   0   0   0    0.00    0.00
;
_shelx_hkl_checksum              54535
_shelx_res_file
;
TITL byan0003P21oc in P2(1)/c
CELL  0.71073  11.8465  17.6887   8.1762   90.000   98.798   90.000
ZERR     1.00   0.0004   0.0006   0.0003    0.000    0.003    0.000
LATT   1
SYMM  - X, 1/2 + Y, 1/2 - Z
SFAC  C    H    N    I    PB   O
UNIT  36   52   8    12   4    4
MERG   2
FMAP   2
PLAN   20
ACTA
HTAB
HTAB N1 O1
EQIV $1 x-1, y, z
HTAB C4 I2_$1
EQIV $2 -x+2, -y+2, -z+1
HTAB C6 I1_$2
HTAB C11 I3
HTAB C10 I2_$1
BOND
L.S.   4
WGHT    0.033000
FVAR       0.06073
O1    6    0.744424    0.883576    0.808058    11.00000    0.06187   10.01000 =
        10.01000    0.00141   10.01000    0.00504
N1    3    0.694878    0.946879    0.514662    11.00000    0.03137    0.02165 =
         0.02435    0.00469    0.00327   -0.00047
AFIX  43
H1    2    0.723486    0.940481    0.616887    11.00000   -1.20000
AFIX   0
N2    3    0.799113    0.837717    1.066937    11.00000    0.03324    0.02811 =
         0.01957    0.00126    0.00596    0.01006
C8    1    0.808825    0.885669    0.944797    11.00000    0.03215    0.02240 =
         0.02608   -0.00356    0.01155    0.00772
C2    1    0.604572    0.966347    0.190159    11.00000    0.02710    0.01757 =
         0.01819    0.00113    0.00290    0.00094
C1    1    0.704607    1.003141    0.259962    11.00000    0.03058    0.00951 =
         0.02619    0.00421    0.00657   -0.00361
AFIX  43
H1A   2    0.742086    1.035116    0.195656    11.00000   -1.20000
AFIX   0
C3    1    0.552457    0.919730    0.289637    11.00000    0.02597    0.01980 =
         0.03792   -0.00313   -0.00293   -0.00680
AFIX  43
H3    2    0.485925    0.894187    0.246449    11.00000   -1.20000
AFIX   0
C4    1    0.598873    0.910602    0.454762    11.00000    0.04616    0.02366 =
         0.03546    0.01454    0.01700    0.01017
AFIX  43
H4    2    0.563297    0.879444    0.523029    11.00000   -1.20000
AFIX   0
C12   1    0.556053    0.977090    0.009397    11.00000    0.02761    0.02470 =
         0.02380   -0.00626   -0.00245    0.00632
AFIX  23
H12A  2    0.541530    0.928096   -0.042885    11.00000   -1.20000
H12B  2    0.611313    1.003407   -0.045976    11.00000   -1.20000
AFIX   0
C6    1    0.747447    0.992024    0.423494    11.00000    0.02979    0.02580 =
         0.02827   -0.00227   -0.00187   -0.00355
AFIX  43
H6    2    0.814074    1.016572    0.470140    11.00000   -1.20000
AFIX   0
C11   1    0.872311    0.845751    1.228021    11.00000    0.04329    0.04096 =
         0.02958    0.00185   -0.00777    0.02084
AFIX  33
H11A  2    0.853669    0.807060    1.301780    11.00000   -1.50000
H11B  2    0.860168    0.894529    1.273783    11.00000   -1.50000
H11C  2    0.950936    0.840916    1.213785    11.00000   -1.50000
AFIX   0
C10   1    0.713801    0.776579    1.050042    11.00000    0.03985    0.02380 =
         0.04591   -0.00014    0.01737   -0.00215
AFIX  33
H10A  2    0.720259    0.748710    1.151798    11.00000   -1.50000
H10B  2    0.726924    0.743293    0.962135    11.00000   -1.50000
H10C  2    0.638589    0.797867    1.025174    11.00000   -1.50000
AFIX   0
MOLE    1
PB1   5    1.209935    0.749053    0.941254    11.00000    0.02386    0.01722 =
         0.01980   -0.00065    0.00406   -0.00033
I2    4    1.410043    0.798100    0.732164    11.00000    0.02194    0.02468 =
         0.02644   -0.00079    0.00419   -0.00449
I3    4    1.194093    0.892973    1.171658    11.00000    0.03732    0.01391 =
         0.02471   -0.00087    0.00764   -0.00117
I1    4    1.044026    0.842355    0.650554    11.00000    0.02377    0.02157 =
         0.02525    0.00139    0.00386    0.00155
HKLF 4
REM  byan0003P21oc in P2(1)/c
REM R1 =  0.0437 for    3069 Fo > 4sig(Fo)  and  0.0604 for all    3869 data
REM    142 parameters refined using      0 restraints
END
WGHT      0.0318      0.0000
REM Instructions for potential hydrogen bonds
HTAB N1 O1
HTAB C4 I2_$1
HTAB C6 I1_$2
HTAB C11 I3
HTAB C10 I2_$1
REM Highest difference peak  2.474,  deepest hole -2.471,  1-sigma level  0.292
Q1    1   1.2000  0.7486  0.8066  11.00000  0.05    2.47
Q2    1   1.2220  0.7472  1.0709  11.00000  0.05    2.09
Q3    1   1.2994  0.7394  1.0173  11.00000  0.05    1.89
Q4    1   1.0228  0.8364  0.5183  11.00000  0.05    1.65
Q5    1   1.1398  0.7481  0.9473  11.00000  0.05    1.64
Q6    1   1.3317  0.8098  0.7168  11.00000  0.05    1.42
Q7    1   1.4194  0.7978  0.8632  11.00000  0.05    1.38
Q8    1   1.1209  0.8507  0.6862  11.00000  0.05    1.37
Q9    1   1.2860  0.7617  0.9561  11.00000  0.05    1.30
Q10   1   0.9627  0.8227  0.6097  11.00000  0.05    1.23
Q11   1   1.3234  0.7895  0.6733  11.00000  0.05    1.23
Q12   1   0.7788  1.1531  0.2284  11.00000  0.05    1.20
Q13   1   1.4800  0.7954  0.7463  11.00000  0.05    1.17
Q14   1   1.2001  0.8922  1.2851  11.00000  0.05    1.14
Q15   1   1.0555  0.8450  0.7744  11.00000  0.05    1.11
Q16   1   1.2044  0.7719  1.1761  11.00000  0.05    1.08
Q17   1   0.7417  0.9176  0.8525  11.00000  0.05    1.04
Q18   1   1.0399  0.8580  1.2074  11.00000  0.05    1.03
Q19   1   1.1723  0.8974  1.0454  11.00000  0.05    1.02
Q20   1   1.1230  0.7694  0.8494  11.00000  0.05    1.02
;
_shelx_res_checksum              88233
_shelxl_version_number           201.4
loop_
_space_group_symop_operation_xyz
'x, y, z'
'-x, y+1/2, -z+1/2'
'-x, -y, -z'
'x, -y-1/2, z-1/2'
loop_
_atom_site_type_symbol
_atom_site_label
_atom_site_fract_x
_atom_site_fract_y
_atom_site_fract_z
_atom_site_U_iso_or_equiv
_atom_site_adp_type
_atom_site_calc_flag
_atom_site_occupancy
O O1 0.7444(6) 0.8836(3) 0.8081(7) 0.0268(14) Uani d 1
N N1 0.6949(7) 0.9469(4) 0.5147(9) 0.0259(18) Uani d 1
H H1 0.7235 0.9405 0.6169 0.031 Uiso calc 1
N N2 0.7991(7) 0.8377(5) 1.0669(9) 0.0268(19) Uani d 1
C C8 0.8088(8) 0.8857(6) 0.9448(11) 0.026(2) Uani d 1
C C2 0.6046(8) 0.9663(5) 0.1902(10) 0.021(2) Uani d 1
C C1 0.7046(8) 1.0031(5) 0.2600(11) 0.022(2) Uani d 1
H H1A 0.7421 1.0351 0.1957 0.026 Uiso calc 1
C C3 0.5525(8) 0.9197(5) 0.2896(12) 0.029(2) Uani d 1
H H3 0.4859 0.8942 0.2464 0.034 Uiso calc 1
C C4 0.5989(9) 0.9106(6) 0.4548(12) 0.034(3) Uani d 1
H H4 0.5633 0.8794 0.5230 0.041 Uiso calc 1
C C12 0.5561(8) 0.9771(5) 0.0094(11) 0.026(2) Uani d 1
H H12A 0.5415 0.9281 -0.0429 0.031 Uiso calc 1
H H12B 0.6113 1.0034 -0.0460 0.031 Uiso calc 1
C C6 0.7474(9) 0.9920(6) 0.4235(11) 0.029(2) Uani d 1
H H6 0.8141 1.0166 0.4701 0.034 Uiso calc 1
C C11 0.8723(9) 0.8458(6) 1.2280(12) 0.039(3) Uani d 1
H H11A 0.8537 0.8071 1.3018 0.059 Uiso calc 1
H H11B 0.8602 0.8945 1.2738 0.059 Uiso calc 1
H H11C 0.9509 0.8409 1.2138 0.059 Uiso calc 1
C C10 0.7138(9) 0.7766(6) 1.0500(13) 0.035(3) Uani d 1
H H10A 0.7203 0.7487 1.1518 0.053 Uiso calc 1
H H10B 0.7269 0.7433 0.9621 0.053 Uiso calc 1
H H10C 0.6386 0.7979 1.0252 0.053 Uiso calc 1
Pb Pb1 1.20993(3) 0.74905(2) 0.94125(4) 0.02022(11) Uani d 1
I I2 1.41004(5) 0.79810(3) 0.73216(7) 0.02430(16) Uani d 1
I I3 1.19409(5) 0.89297(3) 1.17166(7) 0.02501(16) Uani d 1
I I1 1.04403(5) 0.84236(3) 0.65055(7) 0.02352(16) Uani d 1
loop_
_atom_site_aniso_label
_atom_site_aniso_U_11
_atom_site_aniso_U_22
_atom_site_aniso_U_33
_atom_site_aniso_U_12
_atom_site_aniso_U_13
_atom_site_aniso_U_23
O1 0.062(4) 0.010 0.010 0.005(3) 0.010 0.001(3)
N1 0.031(5) 0.022(4) 0.024(4) 0.000(4) 0.003(4) 0.005(4)
N2 0.033(5) 0.028(5) 0.020(4) 0.010(4) 0.006(3) 0.001(4)
C8 0.032(5) 0.022(5) 0.026(5) 0.008(4) 0.012(4) -0.004(4)
C2 0.027(5) 0.018(5) 0.018(4) 0.001(4) 0.003(4) 0.001(4)
C1 0.031(5) 0.010(4) 0.026(5) -0.004(4) 0.007(4) 0.004(4)
C3 0.026(5) 0.020(5) 0.038(6) -0.007(4) -0.003(4) -0.003(5)
C4 0.046(7) 0.024(6) 0.035(6) 0.010(5) 0.017(5) 0.015(5)
C12 0.028(5) 0.025(5) 0.024(5) 0.006(4) -0.002(4) -0.006(4)
C6 0.030(5) 0.026(5) 0.028(5) -0.004(4) -0.002(4) -0.002(4)
C11 0.043(7) 0.041(7) 0.030(5) 0.021(5) -0.008(5) 0.002(5)
C10 0.040(6) 0.024(5) 0.046(6) -0.002(5) 0.017(5) 0.000(5)
Pb1 0.0239(2) 0.01722(19) 0.01980(18) -0.00033(14) 0.00406(14) -0.00065(15)
I2 0.0219(3) 0.0247(3) 0.0264(3) -0.0045(3) 0.0042(2) -0.0008(3)
I3 0.0373(4) 0.0139(3) 0.0247(3) -0.0012(3) 0.0076(3) -0.0009(3)
I1 0.0238(3) 0.0216(3) 0.0252(3) 0.0016(3) 0.0039(2) 0.0014(3)
loop_
_atom_type_symbol
_atom_type_description
_atom_type_scat_dispersion_real
_atom_type_scat_dispersion_imag
_atom_type_scat_source
C C 0.0033 0.0016 'International Tables Vol C Tables 4.2.6.8 and 6.1.1.4'
H H 0.0000 0.0000 'International Tables Vol C Tables 4.2.6.8 and 6.1.1.4'
N N 0.0061 0.0033 'International Tables Vol C Tables 4.2.6.8 and 6.1.1.4'
I I -0.4742 1.8119 'International Tables Vol C Tables 4.2.6.8 and 6.1.1.4'
Pb Pb -3.3944 10.1111 'International Tables Vol C Tables 4.2.6.8 and 6.1.1.4'
O O 0.0106 0.0060 'International Tables Vol C Tables 4.2.6.8 and 6.1.1.4'
loop_
_geom_angle_atom_site_label_1
_geom_angle_atom_site_label_2
_geom_angle_atom_site_label_3
_geom_angle_site_symmetry_1
_geom_angle_site_symmetry_3
_geom_angle
C6 N1 C4 . . 122.5(8)
C8 N2 C11 . . 120.3(9)
C8 N2 C10 . . 122.4(8)
C11 N2 C10 . . 117.2(8)
O1 C8 N2 . . 122.7(9)
C3 C2 C1 . . 118.0(8)
C3 C2 C12 . . 121.1(8)
C1 C2 C12 . . 120.8(9)
C6 C1 C2 . . 119.8(9)
C2 C3 C4 . . 120.0(9)
N1 C4 C3 . . 119.4(9)
C2 C12 C12 . 3_675 110.8(10)
N1 C6 C1 . . 120.3(9)
I3 Pb1 I2 . 4_576 82.699(17)
I3 Pb1 I1 . 4_576 89.489(18)
I2 Pb1 I1 4_576 4_576 85.261(17)
I3 Pb1 I2 . . 102.207(18)
I2 Pb1 I2 4_576 . 86.760(18)
I1 Pb1 I2 4_576 . 164.89(2)
I3 Pb1 I1 . . 86.769(17)
I2 Pb1 I1 4_576 . 163.93(2)
I1 Pb1 I1 4_576 . 106.82(2)
I2 Pb1 I1 . . 83.630(17)
I3 Pb1 I3 . 4_575 172.36(2)
I2 Pb1 I3 4_576 4_575 104.816(18)
I1 Pb1 I3 4_576 4_575 89.758(17)
I2 Pb1 I3 . 4_575 79.904(17)
I1 Pb1 I3 . 4_575 86.170(16)
Pb1 I2 Pb1 4_575 . 78.709(15)
Pb1 I3 Pb1 . 4_576 77.658(13)
Pb1 I1 Pb1 4_575 . 77.690(14)
loop_
_geom_bond_atom_site_label_1
_geom_bond_atom_site_label_2
_geom_bond_site_symmetry_2
_geom_bond_distance
O1 C8 . 1.254(10)
N1 C6 . 1.313(12)
N1 C4 . 1.332(13)
N2 C8 . 1.329(12)
N2 C11 . 1.469(11)
N2 C10 . 1.472(12)
C2 C3 . 1.370(13)
C2 C1 . 1.395(12)
C2 C12 . 1.514(11)
C1 C6 . 1.370(12)
C3 C4 . 1.387(12)
C12 C12 3_675 1.543(17)
Pb1 I3 . 3.1895(7)
Pb1 I2 4_576 3.2012(6)
Pb1 I1 4_576 3.2302(7)
Pb1 I2 . 3.2457(7)
Pb1 I1 . 3.2874(6)
Pb1 I3 4_575 3.3285(7)
I2 Pb1 4_575 3.2012(6)
I3 Pb1 4_576 3.3285(7)
I1 Pb1 4_575 3.2303(7)
loop_
_geom_hbond_atom_site_label_D
_geom_hbond_atom_site_label_H
_geom_hbond_atom_site_label_A
_geom_hbond_site_symmetry_A
_geom_hbond_distance_DH
_geom_hbond_distance_HA
_geom_hbond_distance_DA
_geom_hbond_angle_DHA
N1 H1 O1 . 0.86 1.84 2.631(9) 151.4
C4 H4 I2 1_455 0.93 3.04 3.957(11) 169.3
C6 H6 I1 3_776 0.93 3.25 3.938(10) 132.9
C11 H11C I3 . 0.96 3.09 3.997(12) 157.6
C10 H10C I2 1_455 0.96 3.33 4.122(11) 141.2

_cod_database_fobs_code 2107270
