#------------------------------------------------------------------------------
#$Date: 2017-10-05 10:39:31 +0300 (Thu, 05 Oct 2017) $
#$Revision: 201751 $
#$URL: file:///home/coder/svn-repositories/cod/cif/1/54/72/1547220.cif $
#------------------------------------------------------------------------------
#
# This file is available in the Crystallography Open Database (COD),
# http://www.crystallography.net/
#
# All data on this site have been placed in the public domain by the
# contributors.
#
data_1547220
loop_
_publ_author_name
'Petrov, Andrey A.'
'Sokolova, Iuliia P.'
'Belich, Nikolai A.'
'Peters, Georgy S.'
'Dorovatovskii, Pavel V.'
'Zubavichus, Yan V.'
'Khrustalev, Victor N.'
'Petrov, Andrey V.'
'Gr\"atzel, Michael'
'Goodilin, Eugene A.'
'Tarasov, Alexey B.'
_publ_section_title
;
 Crystal Structure of DMF-Intermediate Phases Uncovers the Link Between
 CH3NH3PbI3 Morphology and Precursor Stoichiometry
;
_journal_issue                   38
_journal_name_full               'The Journal of Physical Chemistry C'
_journal_page_first              20739
_journal_paper_doi               10.1021/acs.jpcc.7b08468
_journal_volume                  121
_journal_year                    2017
_chemical_formula_moiety         'I3 Pb, C3 H7 N O, C H6 N'
_chemical_formula_sum            'C4 H13 I3 N2 O Pb'
_chemical_formula_weight         693.05
_space_group_crystal_system      monoclinic
_space_group_IT_number           14
_space_group_name_Hall           '-P 2ybc'
_space_group_name_H-M_alt        'P 1 21/c 1'
_symmetry_space_group_name_Hall  '-P 2ybc'
_symmetry_space_group_name_H-M   'P 1 21/c 1'
_atom_sites_solution_hydrogens   geom
_atom_sites_solution_primary     difmap
_atom_sites_solution_secondary   difmap
_audit_creation_method           SHELXL-2014/6
_cell_angle_alpha                90
_cell_angle_beta                 96.75(3)
_cell_angle_gamma                90
_cell_formula_units_Z            4
_cell_length_a                   4.5647(9)
_cell_length_b                   25.446(5)
_cell_length_c                   12.119(2)
_cell_measurement_reflns_used    600
_cell_measurement_temperature    100(2)
_cell_measurement_theta_max      33.0
_cell_measurement_theta_min      3.0
_cell_volume                     1397.9(5)
_computing_cell_refinement       'iMosflm (Battye et al., 2011)'
_computing_data_collection       'Marccd (Doyle, 2011)'
_computing_data_reduction        iMosflm
_computing_molecular_graphics    'SHELXTL (Sheldrick, 2015)'
_computing_publication_material  SHELXTL
_computing_structure_refinement  'SHELXL (Sheldrick, 2015)'
_computing_structure_solution    'SHELXT (Sheldrick, 2015)'
_diffrn_ambient_temperature      100(2)
_diffrn_measured_fraction_theta_full 0.994
_diffrn_measured_fraction_theta_max 0.964
_diffrn_measurement_device_type  'Rayonix SX165 CCD'
_diffrn_measurement_method       '/f scan'
_diffrn_radiation_type           synchrotron
_diffrn_radiation_wavelength     0.96990
_diffrn_reflns_av_R_equivalents  0.0862
_diffrn_reflns_av_unetI/netI     0.1977
_diffrn_reflns_Laue_measured_fraction_full 0.994
_diffrn_reflns_Laue_measured_fraction_max 0.964
_diffrn_reflns_limit_h_max       5
_diffrn_reflns_limit_h_min       -5
_diffrn_reflns_limit_k_max       32
_diffrn_reflns_limit_k_min       -25
_diffrn_reflns_limit_l_max       15
_diffrn_reflns_limit_l_min       -15
_diffrn_reflns_number            12672
_diffrn_reflns_point_group_measured_fraction_full 0.994
_diffrn_reflns_point_group_measured_fraction_max 0.964
_diffrn_reflns_theta_full        35.587
_diffrn_reflns_theta_max         38.371
_diffrn_reflns_theta_min         3.180
_exptl_absorpt_coefficient_mu    21.964
_exptl_absorpt_correction_T_max  0.800
_exptl_absorpt_correction_T_min  0.080
_exptl_absorpt_correction_type   multi-scan
_exptl_absorpt_process_details   'Scala (Evans, 2006)'
_exptl_crystal_colour            colourless
_exptl_crystal_density_diffrn    3.293
_exptl_crystal_description       needle
_exptl_crystal_F_000             1200
_exptl_crystal_size_max          0.20
_exptl_crystal_size_mid          0.01
_exptl_crystal_size_min          0.01
_refine_diff_density_max         7.387
_refine_diff_density_min         -5.418
_refine_diff_density_rms         0.856
_refine_ls_extinction_coef       0.00042(4)
_refine_ls_extinction_expression Fc^*^=kFc[1+0.001xFc^2^\l^3^/sin(2\q)]^-1/4^
_refine_ls_extinction_method     SHELXL
_refine_ls_goodness_of_fit_ref   1.033
_refine_ls_hydrogen_treatment    constr
_refine_ls_matrix_type           full
_refine_ls_number_parameters     81
_refine_ls_number_reflns         2953
_refine_ls_number_restraints     0
_refine_ls_restrained_S_all      1.033
_refine_ls_R_factor_all          0.1247
_refine_ls_R_factor_gt           0.1036
_refine_ls_shift/su_max          0.000
_refine_ls_shift/su_mean         0.000
_refine_ls_structure_factor_coef Fsqd
_refine_ls_weighting_details
'w=1/[\s^2^(Fo^2^)+(0.01P)^2^+100P] where P=(Fo^2^+2Fc^2^)/3'
_refine_ls_weighting_scheme      calc
_refine_ls_wR_factor_gt          0.2260
_refine_ls_wR_factor_ref         0.2459
_reflns_Friedel_coverage         0.000
_reflns_number_gt                2142
_reflns_number_total             2953
_reflns_threshold_expression     'I > 2\s(I)'
_cod_data_source_file            jp7b08468_si_003.cif
_cod_data_source_block           Phase-II
_cod_depositor_comments
'Adding full bibliography for 1547218--1547220.cif.'
_cod_database_code               1547220
_shelx_space_group_comment
;
The symmetry employed for this shelxl refinement is uniquely defined
by the following loop, which should always be used as a source of
symmetry information in preference to the above space-group names.
They are only intended as comments.
;
_shelx_estimated_absorpt_t_min   0.094
_shelx_estimated_absorpt_t_max   0.807
_shelxl_version_number           2014/6
_shelx_res_file
;
TITL PbI3MAH in P2(1)/c
CELL 0.96990  4.5647  25.4462  12.1194  90.000  96.754  90.000
ZERR     4.0  0.0009   0.0051   0.0024   0.000   0.030   0.000
LATT 1
SYMM -X, 0.5+Y, 0.5-Z
SFAC C H N O I Pb
DISP C 0.007 0.003 25.571
DISP H -0 0 0.636
DISP N 0.013 0.007 47.42
DISP O 0.021 0.012 81.964
DISP I -0.034 3.136 18629.286
DISP Pb -9.90 4.074 21889.318
UNIT 16 52 8 4 12 4
TEMP -173.0
SIZE 0.01 0.01 0.20

OMIT    -3  24   1
OMIT     3   2  12
OMIT    -4  22   3
OMIT     4  21   0
OMIT     3   0  12
OMIT    -4  22   2
OMIT     5   0   6
OMIT     5   3   1
OMIT     5   2   0
OMIT     5   2   6
OMIT    -5   7   4
OMIT     5   2   1
OMIT    -5   1   1
OMIT     3  23   4
OMIT    -5   3   5
OMIT     5   1   2
OMIT     5  14   1
OMIT    -5   2   2
L.S. 12
BOND $H
ACTA
CONF
EQIV $1 x+1, y, z
HTAB N2 O1_$1
HTAB N2 I2
HTAB N2 O1
EADP O1 N1 C1 C2 C3

WGHT    0.010000  100.000000
EXTI    0.000423
FVAR       0.15453
PB1   6    0.287611    0.424749    0.593030    11.00000    0.01301    0.01020 =
         0.01017    0.00017    0.00047    0.00003
I1    5    0.730058    0.439305    0.399225    11.00000    0.01404    0.00919 =
         0.00924   -0.00053    0.00044    0.00050
I2    5    0.268737    0.305875    0.559728    11.00000    0.01837    0.00930 =
         0.01382   -0.00068   -0.00026   -0.00006
I3    5    0.850153    0.420527    0.780283    11.00000    0.01341    0.01855 =
         0.00916   -0.00030    0.00098    0.00043
O1    4    0.154152    0.336108    0.213596    11.00000    0.01257    0.01330 =
         0.02145    0.00582    0.00138    0.00032
N1    3    0.353022    0.390779    0.096903    11.00000    0.01257    0.01330 =
         0.02145    0.00582    0.00138    0.00032
C1    1    0.200819    0.380455    0.180323    11.00000    0.01257    0.01330 =
         0.02145    0.00582    0.00138    0.00032
AFIX  43
H1    2    0.122199    0.409287    0.217028    11.00000   -1.20000
AFIX   0
C2    1    0.461156    0.350535    0.028725    11.00000    0.01257    0.01330 =
         0.02145    0.00582    0.00138    0.00032
AFIX 137
H2A   2    0.677188    0.349806    0.040990    11.00000   -1.50000
H2B   2    0.396576    0.358055   -0.049673    11.00000   -1.50000
H2C   2    0.383340    0.316337    0.048429    11.00000   -1.50000
AFIX   0
C3    1    0.422987    0.445419    0.065913    11.00000    0.01257    0.01330 =
         0.02145    0.00582    0.00138    0.00032
AFIX 137
H3A   2    0.328494    0.470169    0.112611    11.00000   -1.50000
H3B   2    0.349513    0.451504   -0.012310    11.00000   -1.50000
H3C   2    0.637132    0.450650    0.076982    11.00000   -1.50000
AFIX   0
N2    3    0.701655    0.293134    0.324415    11.00000    0.02126    0.01492 =
         0.01947    0.00736   -0.00039   -0.00846
AFIX 137
H2D   2    0.845141    0.311327    0.294734    11.00000   -1.20000
H2E   2    0.693457    0.303898    0.395590    11.00000   -1.20000
H2F   2    0.524634    0.299139    0.283482    11.00000   -1.20000
AFIX   0
C4    1    0.770768    0.235236    0.323485    11.00000    0.02741    0.01901 =
         0.01623   -0.00793   -0.00008    0.00843
AFIX 137
H4A   2    0.809461    0.224766    0.248739    11.00000   -1.50000
H4B   2    0.602456    0.215281    0.344665    11.00000   -1.50000
H4C   2    0.945331    0.228010    0.376444    11.00000   -1.50000

AFIX   0
HKLF 4

REM  PbI3MAH in P2(1)/c
REM R1 =  0.1036 for    2142 Fo > 4sig(Fo)  and  0.1247 for all    2953 data
REM     81 parameters refined using      0 restraints

END

WGHT      0.1145      0.0000

REM Highest difference peak  7.387,  deepest hole -5.418,  1-sigma level  0.856
Q1    1  -0.0803  0.4222  0.5937  11.00000  0.05    7.39
Q2    1   0.5598  0.4227  0.5941  11.00000  0.05    6.84
Q3    1   0.9713  0.4394  0.3981  11.00000  0.05    6.12
Q4    1   0.3514  0.4399  0.4045  11.00000  0.05    5.85
Q5    1   1.0747  0.4205  0.7773  11.00000  0.05    5.32
Q6    1   0.5552  0.3085  0.5614  11.00000  0.05    5.31
Q7    1   1.1345  0.4409  0.3974  11.00000  0.05    5.30
Q8    1   0.4754  0.4208  0.7821  11.00000  0.05    5.25
Q9    1  -0.0039  0.3062  0.5610  11.00000  0.05    5.00
Q10   1   1.1809  0.4196  0.7832  11.00000  0.05    4.84
Q11   1   0.5393  0.4412  0.3995  11.00000  0.05    4.81
Q12   1   0.2967  0.3132  0.6344  11.00000  0.05    3.47
Q13   1   0.7092  0.4493  0.3236  11.00000  0.05    3.41
Q14   1   0.2564  0.4146  0.5214  11.00000  0.05    3.12
Q15   1   0.2466  0.3089  0.4836  11.00000  0.05    2.97
Q16   1   0.4538  0.3407  0.6200  11.00000  0.05    2.66
Q17   1   0.3024  0.4220  0.6638  11.00000  0.05    2.61
Q18   1   0.8744  0.4074  0.8536  11.00000  0.05    2.48
Q19   1   0.4134  0.3498  0.5311  11.00000  0.05    2.46
Q20   1   0.1475  0.3868  0.6433  11.00000  0.05    2.35
;
_shelx_res_checksum              37111
_shelx_hkl_file
;
  -5   0   1   15.00    9.69
   5   0  -1   11.53   21.62
  -5   0   2   19.30   11.63
   5   0  -2   13.16   23.45
  -5   0   3  756.30  226.91
  -5   0   4 2245.53  670.64
  -5   0   5  733.23  221.15
  -5   0   6  155.43   51.57
  -5   0   7   60.83   41.65
  -5   0   8   18.99   40.34
  -5   1   1   75.84   26.03
   5  -1  -1   76.57   32.81
   5   1  -1   89.67   35.90
  -5  -1   1   82.29   27.52
  -5   1   2  111.42   34.87
   5  -1  -2   88.09   40.92
   5   1  -2  102.43   39.75
  -5  -1   2  115.90   35.81
  -5   1   3  316.66   97.57
  -5  -1   3  325.10   98.40
  -5   1   4 1525.02  468.40
  -5  -1   4 1610.45  468.81
  -5   1   5 1208.24  358.52
  -5  -1   5 1185.22  358.59
  -5   1   6   24.74   25.12
  -5  -1   6   26.50   26.23
  -5   1   7   14.32   29.51
  -5  -1   7   17.69   37.90
  -5   1   8  151.60   53.59
  -5  -1   8  106.71   56.21
  -5   2   1   79.96   27.57
   5  -2  -1   74.14   34.00
   5   2  -1  106.67   41.26
  -5  -2   1   88.44   30.39
  -5   2   2   61.20   23.86
   5  -2  -2   58.41   31.88
   5   2  -2   70.73   33.68
  -5  -2   2   82.61   27.01
  -5   2   3  521.22  160.24
  -5  -2   3  543.83  160.86
  -5   2   4  290.91   88.75
  -5  -2   4  288.30   90.26
  -5   2   5   25.22   17.75
  -5   2   6   51.89   24.83
  -5  -2   6   47.00   30.08
  -5   2   7   33.52   33.01
  -5  -2   7    0.96   32.59
  -5   2   8  204.14   64.48
  -5  -2   8  103.69   61.46
  -5   3   1   71.68   23.40
   5  -3  -1   52.71   34.19
  -5  -3   1   75.07   26.81
  -5   3   2  104.97   32.55
   5  -3  -2  103.67   39.25
   5   3  -2   87.47   37.97
  -5  -3   2  100.18   33.64
  -5   3   3   25.70   15.49
  -5  -3   3   18.09   20.18
  -5   3   4  312.68   94.83
  -5  -3   4  308.42   95.76
  -5   3   5  293.16   87.51
  -5  -3   5  270.83   89.24
  -5   3   6   36.62   20.70
  -5  -3   6   33.32   29.20
  -5   3   7  119.89   45.10
  -5   3   8  107.68   47.44
  -5   4   1  134.54   41.74
   5  -4  -1  137.20   46.79
   5   4  -1  121.71   51.92
  -5  -4   1  133.08   43.50
  -5   4   2  115.35   34.51
   5  -4  -2  114.36   40.92
   5   4  -2   86.53   42.06
  -5  -4   2  105.23   37.01
  -5   4   3   66.76   24.93
  -5  -4   3   67.77   26.53
  -5   4   4  249.51   73.60
  -5  -4   4  225.24   74.92
  -5   4   5   39.38   23.05
  -5  -4   5   45.46   28.48
  -5   4   6    1.38   21.71
  -5  -4   6   49.59   31.60
  -5   4   7  100.73   38.19
  -5  -4   7   93.55   53.11
  -5   4   8   -0.76   34.70
  -5   5   1   61.72   18.14
   5  -5  -1   59.87   26.96
   5   5  -1  -10.87   30.38
  -5  -5   1   55.15   20.71
  -5   5   2   68.87   20.93
   5  -5  -2   64.17   34.06
   5   5  -2   10.91   31.01
  -5  -5   2   61.79   24.77
  -5   5   3    8.19   11.96
  -5   5   4  333.62  102.97
  -5  -5   4  343.38  104.27
  -5   5   5  219.47   69.11
  -5   5   6   85.94   33.48
  -5  -5   6   81.64   44.66
  -5   5   7  125.23   42.71
  -5  -5   7  101.00   55.84
  -5   5   8   96.80   50.32
  -5   6   1    6.15    8.53
   5  -6  -1   -6.46   26.07
   5   6  -1    9.06   32.44
  -5  -6   1    8.93   16.45
  -5   6   2    6.92   12.21
   5  -6  -2    3.34   23.23
   5   6  -2    1.61   21.33
  -5  -6   2    0.48   17.92
  -5   6   3  359.55  104.72
  -5  -6   3  330.79  106.39
  -5   6   4  666.79  194.69
  -5  -6   4  626.79  196.39
  -5   6   5  191.55   51.67
  -5  -6   5  114.56   54.93
  -5   6   6   19.92   21.05
  -5  -6   6   -0.19   40.85
  -5   6   7   -6.82   23.13
  -5   6   8   34.33   40.69
  -5   7   1   27.43   14.05
   5  -7  -1   36.60   23.29
   5   7  -1    4.13   32.56
  -5  -7   1   32.59   19.23
  -5   7   2   41.60   15.55
   5  -7  -2   49.87   26.68
  -5  -7   2   28.79   22.43
  -5   7   3  212.84   62.91
  -5  -7   3  190.04   65.61
  -5   7   4 1290.06  376.39
  -5  -7   4 1220.70  377.67
  -5   7   5 1485.51  389.26
  -5  -7   5 1068.47  390.20
  -5   7   6   82.73   27.68
  -5  -7   6   19.62   47.26
  -5   7   7    0.61   29.70
  -5   8   1  187.12   47.37
   5  -8  -1  183.01   54.49
   5   8  -1    1.58   54.31
  -5  -8   1  153.51   48.74
  -5   8   2  164.11   47.61
   5  -8  -2  139.01   52.49
  -5  -8   2  140.60   50.60
  -5   8   3  937.33  260.10
  -5  -8   3  787.94  261.47
  -5   8   4 1594.83  437.11
  -5  -8   4 1297.25  438.01
  -5   8   5  568.78  148.85
  -5  -8   5  390.22  152.28
  -5   8   6  104.86   36.91
  -5   8   7   58.26   35.36
  -5   8   8   92.22   50.30
  -5   9   1  116.19   30.88
   5  -9  -1   98.60   36.89
   5   9  -1    3.63   36.59
  -5  -9   1   99.53   34.77
  -5   9   2  129.84   34.93
   5  -9  -2  134.75   41.84
  -5  -9   2   74.07   40.10
  -5   9   3  520.63  138.98
  -5  -9   3  386.77  141.14
  -5   9   4  851.92  216.40
  -5  -9   4  551.16  218.27
  -5   9   5  463.24  140.66
  -5   9   6  150.42   49.30
  -5   9   7   47.53   30.10
  -5   9   8  343.80  112.39
  -5  10   1  103.58   26.30
   5 -10  -1   92.50   33.26
   5  10  -1    7.52   37.22
  -5 -10   1   57.14   32.59
  -5  10   2   88.81   24.37
   5 -10  -2   52.42   31.73
  -5 -10   2   44.23   27.56
  -5  10   3  462.98  114.36
  -5 -10   3  270.72  117.41
  -5  10   4   32.56   17.39
  -5  10   5   15.92   16.95
  -5  10   6   70.59   33.66
  -5  10   7   33.19   28.44
  -5  11   1   40.96   17.55
   5 -11  -1   33.91   27.26
  -5  11   2   52.50   21.21
  -5  11   3   27.50   17.27
  -5  11   4  248.17   76.60
  -5  11   5  421.88  128.26
  -5  11   6   -0.57   20.98
  -5  11   7  109.42   48.26
  -5  12   1  238.67   70.17
   5 -12  -1  200.18   74.55
  -5  12   2  213.01   65.45
  -5  12   3   56.19   21.75
  -5  12   4  319.59   98.36
  -5  12   5   24.07   19.55
  -5  12   6   30.49   27.85
  -5  12   7   31.20   32.21
  -5  13   1   30.47   13.95
   5 -13  -1   22.44   30.76
  -5  13   2   26.07   14.94
  -5  13   3   74.69   28.18
  -5  13   4  250.53   77.90
  -5  13   5  198.96   65.01
  -5  13   6  145.13   50.49
  -5  14   1    6.18   13.64
   5 -14  -1    4.47   29.35
  -5  14   2   14.67   16.43
  -5  14   3  220.52   68.95
  -5  14   4  620.11  186.96
  -5  14   5  279.53   87.23
  -5  15   1   28.39   16.74
  -5  15   2   30.58   18.91
  -5  15   3  386.08  117.58
  -5  15   4  546.41  165.33
  -5  15   5  655.51  198.36
  -5  16   1  282.15   87.39
  -5  16   2  228.54   71.42
  -5  16   3  612.00  184.69
  -5  16   4  234.71   74.24
  -4   0   1   88.68   28.14
   4   0  -1   89.15   32.95
  -4   0   2 2911.93  881.35
   4   0  -2 3089.90  882.36
  -4   0   3    1.02    7.53
   4   0  -3    4.46   14.62
  -4   0   4    9.85   10.82
  -4   0   5    3.51   14.76
  -4   0   6 1480.12  442.30
  -4   0   7    3.96   15.27
  -4   0   8  357.76  108.97
  -4   0   9   13.80   24.91
  -4   0  10   54.48   40.19
  -4   0  11    2.47   45.36
  -4   1   1 2726.09  817.93
   4  -1  -1 2717.68  818.81
   4   1  -1 2796.68  818.85
  -4  -1   1 2748.62  817.94
  -4   1   2   62.99   30.72
   4  -1  -2  304.79   38.87
   4   1  -2  130.51   35.12
  -4  -1   2   59.13   30.63
  -4   1   3   61.75   18.66
   4  -1  -3   44.21   22.18
   4   1  -3   44.94   21.74
  -4  -1   3   47.55   17.84
  -4   1   4  125.52   39.35
  -4   1   5   48.57   21.29
  -4  -1   5   49.04   21.32
  -4   1   6  727.46  222.53
  -4  -1   6  755.75  222.58
  -4   1   7 1858.93  537.71
  -4  -1   7 1736.85  537.56
  -4   1   8    6.87   18.56
  -4  -1   8    3.98   20.89
  -4   1   9    7.92   13.93
  -4  -1   9   20.26   25.19
  -4   1  10    5.38   35.26
  -4  -1  10    8.30   37.27
  -4   1  11  171.10   67.50
  -4  -1  11  149.19   69.67
  -4   2   1  397.37  111.98
   4  -2  -1  328.27  112.96
   4   2  -1  348.37  113.38
  -4  -2   1  368.95  111.86
  -4   2   2  211.58   65.89
   4  -2  -2  232.14   67.99
   4   2  -2  232.32   67.76
  -4  -2   2  212.58   65.53
  -4   2   3  187.61   56.51
   4  -2  -3  193.81   60.22
   4   2  -3  152.17   58.50
  -4  -2   3  188.17   56.31
  -4   2   4  111.33   34.13
  -4  -2   4  102.95   34.36
  -4   2   5  418.24  120.40
  -4  -2   5  379.09  120.16
  -4   2   6  452.51  134.79
  -4  -2   6  441.07  135.25
  -4   2   7   86.41   32.09
  -4  -2   7   98.34   36.93
  -4  -2   8   10.50   21.66
  -4   2   9    8.75   16.13
  -4  -2   9    7.51   25.61
  -4   2  10  126.89   51.65
  -4  -2  10  191.68   65.08
  -4   2  11  465.07  142.32
  -4  -2  11  422.02  144.92
  -4   2  12  354.85  120.91
  -4   3   1   32.33   12.09
   4  -3  -1   35.37   26.67
   4   3  -1   13.73   17.49
  -4  -3   1   24.20   10.48
  -4   3   2   34.67   14.85
   4  -3  -2   28.60   22.11
   4   3  -2   55.30   22.62
  -4  -3   2   47.28   14.62
  -4   3   3   30.97   14.44
   4  -3  -3   34.73   22.68
   4   3  -3   26.90   17.26
  -4  -3   3   32.11   12.51
  -4   3   4  224.52   65.73
  -4  -3   4  203.17   65.20
  -4   3   5   81.50   26.30
  -4  -3   5   67.93   25.09
  -4   3   6  551.97  166.77
  -4  -3   6  557.36  167.35
  -4   3   7   11.70   18.50
  -4  -3   7   14.65   24.22
  -4   3   8  173.09   57.72
  -4  -3   8  182.45   60.65
  -4   3   9   92.23   36.10
  -4  -3   9  129.34   47.54
  -4   3  10   11.73   18.77
  -4  -3  10   11.04   41.52
  -4   3  11  195.24   68.22
  -4  -3  11   94.09   76.21
  -4   3  12   31.69   61.71
  -4   4   1  401.04  114.39
   4  -4  -1  420.53  116.71
   4   4  -1  355.80  115.64
  -4  -4   1  354.34  114.14
  -4   4   2   73.32   22.79
   4  -4  -2  105.23   29.65
   4   4  -2   71.41   26.85
  -4  -4   2   55.93   22.23
  -4   4   3    3.13    8.81
   4  -4  -3   14.40   20.09
   4   4  -3    5.24   16.34
  -4  -4   3    4.53    7.73
  -4   4   4    2.95   10.24
  -4  -4   4    1.76   11.03
  -4   4   5    8.06   15.32
  -4  -4   5    0.36   13.53
  -4   4   6   51.75   22.61
  -4  -4   6   45.20   24.69
  -4   4   7   37.97   21.19
  -4  -4   7   29.01   31.60
  -4   4   8    8.26   16.73
  -4  -4   8   12.62   28.40
  -4   4   9   13.09   16.61
  -4  -4   9   24.04   34.36
  -4   4  10    1.45   17.65
  -4  -4  10   12.01   53.53
  -4   4  11  235.14   69.75
  -4  -4  11  177.90   79.80
  -4   4  12   57.93   52.29
  -4   5   1  200.33   60.65
   4  -5  -1  255.85   66.25
   4   5  -1  177.95   62.60
  -4  -5   1  188.32   60.53
  -4   5   2    2.52    9.05
   4  -5  -2   17.29   18.91
   4   5  -2   11.60   27.77
  -4  -5   2    2.84   12.31
  -4   5   3  121.34   39.83
   4  -5  -3  114.12   44.59
  -4  -5   3  141.12   40.70
  -4   5   4  134.95   41.21
  -4  -5   4  128.22   42.47
  -4   5   5   10.99   13.23
  -4  -5   5    9.07   18.06
  -4   5   6  278.34   77.72
  -4  -5   6  219.87   78.44
  -4   5   7  461.53  143.72
  -4  -5   7  494.15  146.20
  -4   5   8   12.65   18.23
  -4  -5   8   30.70   30.12
  -4   5   9  197.37   63.87
  -4  -5   9  216.35   73.57
  -4   5  10    6.79   21.50
  -4  -5  10    3.65   56.27
  -4   5  11  221.89   65.51
  -4  -5  11  139.54   83.49
  -4   6   1  103.38   25.15
   4  -6  -1   56.31   31.83
   4   6  -1   62.64   33.41
  -4  -6   1   56.70   25.64
  -4   6   2  796.64  248.33
   4  -6  -2  832.41  249.65
   4   6  -2  906.70  250.69
  -4  -6   2  841.09  248.66
  -4   6   3    5.13   10.84
   4  -6  -3    4.95   21.15
  -4  -6   3    7.01   12.70
  -4   6   4   56.60   20.59
  -4  -6   4   59.17   23.40
  -4   6   5  278.33   84.65
  -4   6   6  807.64  224.29
  -4  -6   6  672.87  224.80
  -4   6   7  346.87  100.58
  -4  -6   7  308.03  102.88
  -4   6   8   28.43   21.97
  -4  -6   8   16.69   31.69
  -4   6   9   45.93   18.35
  -4  -6   9   28.00   46.75
  -4   6  10   41.15   21.48
  -4  -6  10   23.52   51.39
  -4   6  11   48.00   27.30
  -4   7   1 2979.69  937.83
   4  -7  -1 3235.96  939.03
   4   7  -1 3127.74  939.02
  -4  -7   1 3283.69  937.95
  -4   7   2  114.47   42.72
   4  -7  -2  190.21   47.11
   4   7  -2  278.37   50.91
  -4  -7   2   97.04   44.02
  -4   7   3  169.32   50.78
   4  -7  -3  167.07   54.85
  -4  -7   3  160.06   51.48
  -4   7   4   33.64   17.13
  -4  -7   4   41.34   19.33
  -4   7   5   28.54   15.62
  -4  -7   5   28.31   21.49
  -4   7   6   19.96   18.17
  -4   7   7 2052.89  593.78
  -4  -7   7 1898.64  594.56
  -4   7   8  314.94   97.56
  -4  -7   8  317.00  101.61
  -4   7   9    2.52   12.82
  -4  -7   9    6.11   51.67
  -4   7  10   -2.27   17.95
  -4  -7  10   15.16   51.74
  -4   7  11   70.97   33.05
  -4   8   1  185.08   58.92
   4  -8  -1  243.74   65.24
   4   8  -1  167.23   65.33
  -4  -8   1  195.73   59.52
  -4   8   2 2298.97  727.73
   4  -8  -2 2777.16  729.18
  -4  -8   2 2475.11  727.96
  -4   8   3  380.30  109.74
   4  -8  -3  400.15  112.28
  -4  -8   3  332.42  109.93
  -4   8   4    5.21   10.53
  -4  -8   4    3.09   15.64
  -4   8   5  380.23  105.99
  -4  -8   5  309.00  106.81
  -4   8   6 1164.48  348.30
  -4   8   7   -1.20   15.90
  -4   8   8  331.40   88.22
  -4  -8   8  205.33   93.04
  -4   8   9    6.10   13.45
  -4  -8   9    8.99   55.76
  -4   8  10    5.59   18.03
  -4  -8  10    5.49   58.51
  -4   8  11  162.95   56.44
  -4   9   1  690.76  209.67
   4  -9  -1  838.98  212.01
   4   9  -1  663.78  212.25
  -4  -9   1  678.56  209.88
  -4   9   2  301.59   90.25
   4  -9  -2  357.02   93.00
   4   9  -2  233.83   91.87
  -4  -9   2  299.31   91.11
  -4   9   3   42.99   16.81
   4  -9  -3   54.99   26.98
  -4  -9   3   45.02   21.05
  -4   9   4  166.21   47.58
  -4  -9   4  132.44   49.16
  -4   9   5  100.90   33.49
  -4   9   6 1441.80  392.24
  -4  -9   6 1123.84  392.94
  -4   9   7  552.79  136.36
  -4  -9   7  282.88  136.86
  -4   9   8  122.18   35.50
  -4  -9   8   36.11   56.04
  -4   9   9   21.52   14.44
  -4  -9   9    3.65   54.39
  -4   9  10   34.65   21.74
  -4   9  11  127.63   47.30
  -4  10   1  375.25  112.86
   4 -10  -1  383.27  115.06
   4  10  -1  369.82  116.88
  -4 -10   1  374.80  113.49
  -4  10   2   62.54   22.17
   4 -10  -2   79.97   29.62
  -4 -10   2   64.21   25.66
  -4  10   3  223.61   60.80
  -4 -10   3  169.60   61.78
  -4  10   4  150.27   42.34
  -4 -10   4  114.83   46.52
  -4  10   5  408.17  123.25
  -4  10   6   88.20   30.02
  -4 -10   6   61.62   38.31
  -4  10   7   56.39   21.23
  -4 -10   7   19.00   31.98
  -4  10   8   43.92   19.81
  -4 -10   8   -9.23   54.04
  -4  10   9    0.53   13.35
  -4 -10   9   -5.53   67.13
  -4  10  10  274.91   86.07
  -4  10  11  350.65  110.16
  -4  11   1  335.03  100.36
   4 -11  -1  337.22  102.79
   4  11  -1  340.61  104.83
  -4 -11   1  327.82  101.33
  -4  11   2   15.06   12.00
   4 -11  -2   28.41   22.03
  -4 -11   2   -1.75   12.79
  -4  11   3    5.91   12.48
  -4 -11   3    4.76   17.63
  -4  11   4  109.42   32.59
  -4 -11   4   87.39   37.70
  -4  11   5  260.10   67.07
  -4 -11   5  152.10   70.44
  -4  11   6   78.96   23.86
  -4 -11   6   23.34   28.51
  -4  11   7  341.60   79.16
  -4 -11   7   88.85   82.03
  -4  11   8   98.84   31.00
  -4 -11   8   40.42   52.70
  -4  11   9   30.14   17.12
  -4  11  10    6.76   20.69
  -4  11  11   29.25   27.50
  -4  12   1   88.32   22.95
   4 -12  -1   92.16   29.98
   4  12  -1   22.65   37.71
   4  12  -1   21.16   31.61
  -4 -12   1   77.12   26.09
  -4  12   2  296.58   89.08
   4 -12  -2  285.44   91.67
  -4  12   3  198.01   57.08
  -4 -12   3  165.12   59.18
  -4  12   4   -4.82   14.44
  -4 -12   4    3.70   20.75
  -4  12   5   80.15   26.86
  -4 -12   5   43.08   34.45
  -4  12   6  179.69   45.85
  -4 -12   6   52.41   49.34
  -4  12   7    5.62   20.06
  -4 -12   7   -3.70   38.93
  -4  12   8    8.48   22.30
  -4  12   9   -4.57   17.49
  -4  12  10   16.20   26.83
  -4  13   1  335.49   78.39
   4 -13  -1  379.42   83.31
   4  13  -1  137.02  103.50
   4  13  -1  144.70   79.80
  -4 -13   1  222.22   79.38
  -4  13   2  107.39   28.26
   4 -13  -2  121.23   34.83
   4  13  -2   47.13   43.23
  -4 -13   2   52.89   31.71
  -4  13   3   83.12   24.65
   4  13  -3   13.98   34.87
  -4 -13   3   69.86   30.03
  -4  13   4   41.51   17.52
  -4 -13   4   34.79   26.34
  -4  13   5    4.32   14.34
  -4  13   6   14.33   15.74
  -4 -13   6  -21.09   36.60
  -4  13   7  722.13  217.11
  -4  13   8  129.15   44.25
  -4  13   9  137.29   45.16
  -4  13  10    7.91   21.92
  -4  14   1   39.55   13.78
   4 -14  -1   52.34   29.05
   4  14  -1    7.95   32.77
  -4 -14   1   22.18   19.11
  -4  14   2  830.85  202.89
   4 -14  -2  810.42  204.86
   4  14  -2  325.24  256.40
  -4 -14   2  567.41  203.47
  -4  14   3  110.62   36.43
  -4  14   4   48.17   20.16
  -4  14   5   10.17   14.80
   4  14  -5    5.24   30.52
  -4  14   6  569.67  171.65
  -4  14   7  364.63  111.37
  -4  14   8   62.11   29.15
  -4  14   9  133.84   50.11
  -4  14  10    7.22   22.84
  -4  15   1 1788.24  454.60
   4 -15  -1 1449.97  455.76
   4  15  -1  876.57  568.68
  -4  15   2  341.76  103.26
  -4  15   3  292.54   72.88
   4  15  -3   71.61   95.56
  -4  15   4   32.06   16.21
   4  15  -4    7.77   34.13
  -4  15   5   77.74   23.73
   4  15  -5    8.45   45.12
  -4  15   6  152.67   49.64
  -4  15   7  883.57  265.69
  -4  15   8  438.20  133.42
  -4  15   9   41.02   27.14
  -4  16   1  312.81   90.96
   4 -16  -1  261.40   94.17
  -4  16   2  487.45  123.77
   4  16  -2  190.94  159.33
  -4  16   3  557.54  136.69
   4  16  -3  138.66  174.81
  -4  16   4   -2.91   14.42
   4  16  -4    5.13   33.21
  -4  16   5  674.41  151.09
   4  16  -5   71.10  194.38
  -4  16   6  300.69   93.41
  -4  16   7    9.96   18.77
  -4  16   8  166.32   55.56
  -4  16   9   22.27   31.07
  -4  17   1   10.06   27.51
  -4  17   1    9.70   10.67
   4 -17  -1   17.41   29.24
   4  17  -1    4.63   32.11
  -4  17   2  238.03   73.35
  -4  17   3   18.05   14.10
   4  17  -3    6.32   38.51
  -4  17   4  233.46   56.41
   4  17  -4   28.32   80.11
  -4  17   5  300.91   92.31
  -4  17   6  827.76  249.08
  -4  17   7    1.28   19.21
  -4  17   8   55.48   28.77
  -4  17   9   29.63   31.77
  -4  18   1  170.86   43.29
   4  18  -1   31.55   67.28
  -4  18   2  445.95  110.91
   4  18  -2  135.93  146.24
  -4  18   3   54.43   20.56
   4  18  -3   22.93   49.52
  -4  18   4  104.09   37.26
  -4  18   5   60.85   25.76
  -4  18   6    1.55   22.64
  -4  18   7   20.39   31.68
  -4  18   8   85.95   39.60
  -4  19   1  330.86  100.34
  -4  19   2  130.77   33.03
   4  19  -2    2.33   73.36
  -4  19   3   23.51   19.76
  -4  19   4  105.24   36.32
  -4  19   5  126.06   42.72
  -4  19   6   41.62   23.33
  -4  19   7  389.97  122.76
  -4  20   1   24.28   17.17
  -4  20   2  116.77   39.63
  -4  20   3  330.18  100.84
  -4  20   4   -5.45   17.13
  -4  20   5  134.41   47.50
  -4  21   1  163.20   53.38
  -4  21   2  268.66   83.91
  -4  21   3    3.99   22.09
  -4  21   4   26.45   25.42
  -4  21   5   20.67   29.98
  -4  22   1    0.20   16.09
  -4  22   2   -4.22   17.54
  -4  22   3   -5.96   19.76
  -4  22   4   -0.60   21.43
  -3   0   1    0.20    5.62
  -3   0   1    2.49    9.41
  -3   0   2  204.79   62.51
  -3   0   2  174.42   63.43
   3   0  -2  244.89   64.26
  -3   0   3    7.37    8.04
  -3   0   3    1.45   10.53
  -3   0   4 4947.22 1475.61
  -3   0   5    0.51    9.63
  -3   0   5    0.77    8.78
  -3   0   6   78.57   23.39
  -3   0   6   39.21   22.87
  -3   0   7   -2.26    8.18
  -3   0   7    7.41   15.52
   3   0  -7   -0.18    6.71
  -3   0   8  269.31  102.79
  -3   0   8  212.89  103.54
  -3   0   8  325.46   82.55
  -3   0   9    2.37   12.99
  -3   0   9   -2.30   11.91
  -3   0   9   -2.38   16.47
  -3   0  10  555.25  230.66
  -3   0  10  721.19  185.33
  -3   0  11   -6.28   21.55
  -3   0  11    5.64   21.30
  -3   0  12   -4.30   20.07
  -3   0  13   -4.15   39.41
  -3   1   1   31.32   11.12
  -3   1   1   20.54   12.82
   3  -1  -1   28.48   19.28
   3   1  -1   37.06   16.83
  -3  -1   1   23.99   10.47
  -3  -1   1   33.84   15.02
  -3   1   2  670.87  187.71
  -3   1   2  549.61  188.35
   3  -1  -2  739.87  188.71
   3   1  -2  676.59  188.54
  -3  -1   2  612.61  187.66
  -3  -1   2  437.93  187.95
  -3   1   3 4031.11  980.41
  -3   1   3 2129.00  980.42
   3  -1  -3 4369.99  981.24
   3   1  -3 3345.10  980.87
  -3  -1   3 2795.27  980.21
  -3  -1   3 2359.28  980.52
  -3   1   4   99.53   28.43
  -3   1   4   54.95   28.40
  -3  -1   4   97.11   28.25
  -3  -1   4   62.81   29.37
  -3   1   5  429.35  113.14
  -3   1   5  269.68  113.41
  -3  -1   5  428.08  113.31
  -3  -1   5  202.46  113.09
  -3   1   6   34.53   15.02
  -3   1   6   21.18   13.37
  -3  -1   6   39.06   15.07
  -3  -1   6   18.61   17.53
  -3   1   7   -0.26    6.48
  -3   1   7    1.48    6.12
  -3   1   7    4.41    8.08
  -3   1   7    4.71   14.63
   3  -1  -7    0.24    7.47
   3   1  -7    0.79    6.73
  -3  -1   7   -1.40    7.50
  -3  -1   7   -2.31   11.66
  -3  -1   7   -1.80   13.42
  -3   1   8  462.42  207.77
  -3   1   8  644.43  166.30
  -3  -1   8  484.54  206.89
  -3  -1   8  637.62  166.32
  -3   1   9 1182.28  468.77
  -3   1   9  802.07  469.58
  -3   1   9 1727.91  377.04
  -3  -1   9 1396.27  469.06
  -3  -1   9  749.80  469.37
  -3  -1   9 1658.41  377.05
  -3   1  10   40.76   23.82
  -3  -1  10   44.35   26.36
  -3  -1  10   51.08   24.35
  -3   1  11   11.27   26.93
  -3   1  11   17.89   23.85
  -3  -1  11   16.02   23.58
  -3  -1  11   13.92   24.29
  -3   1  12   25.35   29.35
  -3  -1  12   -1.32   22.25
  -3  -1  12   56.02   45.35
  -3   1  13   47.74   41.69
  -3  -1  13   41.16   51.73
  -3   2   1   64.95   22.90
  -3   2   1   65.13   24.38
   3  -2  -1   84.71   27.19
   3   2  -1   85.84   26.37
  -3  -2   1   76.15   22.94
  -3  -2   1   72.84   25.68
  -3   2   2    0.56    5.95
  -3   2   2    1.88   11.14
   3  -2  -2    0.92   12.12
   3   2  -2    2.43   12.66
  -3  -2   2    3.61    5.52
  -3  -2   2    0.22   10.24
  -3   2   3 1426.47  403.17
  -3   2   3 1039.38  403.48
   3  -2  -3 1540.96  404.00
   3   2  -3 1366.91  403.77
  -3  -2   3 1399.26  403.14
  -3  -2   3 1100.36  403.60
  -3   2   4  637.86  173.20
  -3   2   4  431.54  173.50
  -3  -2   4  618.05  173.17
  -3  -2   4  467.45  173.61
  -3   2   5  208.43   49.85
  -3   2   5  108.57   49.48
  -3  -2   5  157.94   49.62
  -3  -2   5   89.73   49.69
  -3   2   6  281.36   77.35
  -3   2   6  183.49   77.23
  -3  -2   6  274.95   76.64
  -3  -2   6  196.64   77.60
  -3   2   7   48.83   20.30
  -3   2   7   67.11   17.44
  -3   2   7   29.42   19.13
   3  -2  -7   21.22   16.27
  -3  -2   7   49.41   21.32
  -3  -2   7   45.66   22.61
  -3  -2   7   74.60   17.94
  -3   2   8  483.02  132.29
  -3  -2   8  399.49  165.26
  -3  -2   8  364.85  165.87
  -3  -2   8  530.88  132.78
  -3   2   9  265.30  106.82
  -3   2   9  216.15  107.85
  -3   2   9  374.02   86.13
  -3  -2   9  247.46  106.90
  -3  -2   9  310.26   86.16
  -3   2  10   81.93   36.70
  -3   2  10   89.23   30.26
  -3  -2  10   70.76   36.85
  -3  -2  10   75.50   32.25
  -3   2  11   18.58   25.73
  -3   2  11   32.02   28.75
  -3  -2  11   24.85   38.94
  -3   2  12    1.22   25.50
  -3   2  12  140.21   32.82
  -3  -2  12    9.62   30.77
  -3   2  13  212.28   80.26
  -3  -2  13  208.30   84.49
  -3   3   1    6.97    6.65
  -3   3   1    1.85    9.66
   3  -3  -1   -1.77   16.55
   3   3  -1    8.29   13.43
  -3  -3   1    5.02    5.61
  -3  -3   1    6.49   11.79
  -3   3   2   26.47    8.28
  -3   3   2   11.49   12.94
   3  -3  -2   12.89   13.71
   3   3  -2   19.93   14.82
  -3  -3   2   21.23    7.80
  -3  -3   2   10.40   11.97
  -3   3   3    4.03    7.98
  -3   3   3    3.98    9.99
   3   3  -3    4.62   11.58
  -3  -3   3    2.37    6.16
  -3  -3   3   -1.34   11.17
  -3   3   4   62.19   14.53
  -3   3   4   -2.40   13.85
  -3  -3   4   33.21   13.58
  -3  -3   4    5.18   14.84
  -3   3   5   55.94   17.02
  -3   3   5   28.76   16.98
  -3  -3   5   54.33   18.04
  -3  -3   5   15.93   16.44
  -3   3   6   84.29   24.69
  -3   3   6   53.09   25.24
  -3  -3   6   53.30   25.02
  -3   3   7  261.29   66.26
  -3  -3   7  160.61   83.09
  -3  -3   7  263.61   66.95
  -3  -3   7  179.49   68.45
  -3   3   8  435.61  168.39
  -3   3   8  572.88  170.77
  -3   3   8  510.83  135.07
  -3  -3   8  419.16  169.09
  -3  -3   8  340.83  169.08
  -3  -3   8  473.73  135.26
  -3   3   9   92.60   39.75
  -3   3   9  103.10   32.40
  -3  -3   9   95.17   42.37
  -3  -3   9   94.84   33.73
  -3   3  10  225.70   95.61
  -3   3  10  276.12   77.20
  -3  -3  10  216.31   95.92
  -3  -3  10  304.54   85.44
  -3   3  11   34.47   28.47
  -3   3  11   42.43   30.41
  -3  -3  11   39.95   29.45
  -3  -3  11   28.94   34.69
  -3   3  12   10.85   27.41
  -3  -3  12    1.38   31.99
  -3  -3  12   26.78   42.43
  -3   3  13  157.83   56.37
  -3  -3  13  103.44   62.03
  -3   4   1 1146.83  402.20
  -3   4   1 1327.09  402.90
   3  -4  -1 1471.46  403.10
   3   4  -1 1215.67  402.80
  -3  -4   1 1470.19  402.30
  -3  -4   1 1628.12  403.17
  -3   4   2   86.12   27.41
  -3   4   2   70.67   29.56
   3  -4  -2  114.52   31.62
   3   4  -2   95.43   30.19
  -3  -4   2   92.79   27.44
  -3  -4   2   68.84   29.13
  -3   4   3  269.65   75.92
  -3   4   3  225.38   76.88
   3  -4  -3  265.57   77.17
   3   4  -3  218.55   76.70
  -3  -4   3  263.14   75.81
  -3  -4   3  216.15   77.08
  -3   4   4  218.88   57.01
  -3   4   4  115.24   57.11
  -3  -4   4  191.36   56.97
  -3  -4   4  159.83   58.18
  -3   4   5  300.14   89.93
  -3   4   5  119.36   89.82
  -3  -4   5  441.89   90.49
  -3  -4   5  110.90   89.91
  -3   4   6   14.16   11.79
  -3   4   6    6.19   13.25
   3   4  -6    6.75    9.25
  -3  -4   6   10.73    9.16
  -3   4   7   32.78   18.20
  -3   4   7   48.09   22.39
  -3   4   7   37.26   16.27
   3   4  -7   42.28   20.23
  -3  -4   7   50.90   16.80
  -3  -4   7   38.57   22.61
  -3   4   8   19.17   16.45
  -3   4   8    8.37   12.28
   3   4  -8   12.18   13.86
  -3  -4   8   10.95   14.70
  -3  -4   8    6.68   12.27
  -3  -4   8   15.64   14.81
  -3   4   9    6.74   13.91
  -3   4   9    7.50   15.39
  -3  -4   9    5.04   19.82
  -3  -4   9   -4.65   18.97
  -3   4  10   23.16   22.15
  -3   4  10   28.35   18.32
  -3  -4  10   39.38   36.94
  -3   4  11   50.80   28.41
  -3  -4  11   44.63   35.26
  -3  -4  11   79.69   45.90
  -3   4  12   -2.20   23.47
  -3   4  12    3.44   21.87
  -3  -4  12    0.21   32.43
  -3  -4  12   17.57   44.56
  -3   4  13  407.12  126.64
  -3  -4  13  398.29  136.80
  -3   5   1    6.53    5.94
  -3   5   1    3.14    9.52
   3  -5  -1    5.94   11.57
   3   5  -1    3.93   15.11
  -3  -5   1    4.54    5.16
  -3  -5   1   13.26   15.72
  -3   5   2   31.39   11.28
  -3   5   2   25.88   17.11
   3  -5  -2   33.72   17.30
   3   5  -2   42.51   16.66
  -3  -5   2   31.27   11.22
  -3  -5   2   32.56   20.38
  -3   5   3  267.78   68.27
  -3   5   3  172.95   68.89
   3   5  -3  243.02   69.33
  -3  -5   3  195.67   68.09
  -3  -5   3  226.58   70.60
  -3   5   4   53.13   14.04
  -3   5   4    1.34   13.26
  -3  -5   4   35.67   13.97
  -3  -5   4    3.03   16.24
  -3   5   5   92.77   25.01
  -3   5   5   45.77   25.45
  -3  -5   5   81.26   25.85
  -3  -5   5   44.13   26.14
  -3   5   6  122.80   23.16
  -3   5   6   61.85   23.84
   3   5  -6   57.72   27.72
  -3  -5   6   27.27   25.83
  -3  -5   6   67.50   21.48
  -3  -5   6   38.97   22.41
  -3   5   7   68.52   31.91
  -3   5   7  121.47   35.77
  -3   5   7   98.35   25.81
   3   5  -7   69.26   33.98
  -3  -5   7   47.40   33.78
  -3  -5   7  104.34   26.87
  -3  -5   7   69.29   31.03
  -3   5   8  180.27   64.59
  -3   5   8  175.05   67.07
  -3   5   8  182.69   51.48
   3   5  -8  154.43   66.32
  -3  -5   8  111.66   65.39
  -3  -5   8  200.02   53.78
  -3   5   9  758.18  287.69
  -3   5   9  908.88  230.83
   3   5  -9  742.23  288.99
  -3  -5   9  640.86  231.33
  -3   5  10   21.19   18.74
  -3   5  10   29.44   20.31
  -3  -5  10   13.38   24.77
  -3   5  11  112.14   52.98
  -3   5  11  150.74   46.47
  -3  -5  11   93.60   55.55
  -3  -5  11  149.90   55.13
  -3   5  12    3.65   23.48
  -3   5  12    9.12   27.02
  -3  -5  12    3.39   29.08
  -3  -5  12  -15.81   47.43
  -3   5  13  122.74   48.47
  -3  -5  13   70.85   68.31
  -3   6   1   40.51   15.69
  -3   6   1   33.47   17.79
   3  -6  -1   41.35   18.91
   3   6  -1   51.54   20.17
  -3  -6   1   52.39   15.73
  -3  -6   1   78.09   27.64
  -3   6   2    4.97    9.03
  -3   6   2   -1.37   13.42
   3  -6  -2    9.73   15.39
   3   6  -2    0.96   14.19
  -3  -6   2    5.81    8.19
  -3   6   3  397.59  113.46
  -3   6   3  288.67  113.84
   3  -6  -3  390.17  114.50
  -3  -6   3  391.21  113.31
  -3  -6   3  354.90  115.18
  -3   6   4 2661.63  633.05
  -3   6   4 1142.69  632.89
  -3  -6   4 2167.91  632.83
  -3  -6   4 1351.13  633.01
  -3   6   5   66.41   16.85
  -3   6   5   34.58   17.62
  -3  -6   5   23.13   19.04
  -3  -6   5   60.53   18.09
  -3  -6   5   45.30   20.23
  -3   6   6  191.95   36.23
  -3   6   6   94.28   36.76
  -3  -6   6   62.63   43.66
  -3  -6   6  119.03   35.28
  -3  -6   6   66.80   35.68
  -3   6   7  103.56   25.72
   3   6  -7   72.60   32.49
  -3  -6   7   37.82   31.30
  -3  -6   7   92.98   28.45
  -3  -6   7   49.32   27.89
  -3   6   8  392.18  158.02
  -3   6   8  393.40  160.02
  -3   6   8  491.27  126.50
  -3  -6   8  400.99  127.50
  -3   6   9  321.30  120.03
  -3   6   9  411.43   96.54
   3   6  -9  255.34  121.79
  -3  -6   9  241.64   97.32
  -3   6  10  336.30   94.67
   3   6 -10  253.29  120.29
  -3  -6  10  352.53  101.37
  -3   6  11  119.42   53.34
  -3   6  11  192.97   44.80
   3   6 -11  118.38   56.31
  -3  -6  11   70.56   56.82
  -3  -6  11  142.56   55.10
  -3   6  12    5.54   25.63
  -3   6  12   41.54   23.79
  -3  -6  12    1.15   28.62
  -3  -6  12   63.46   50.77
  -3   6  13   -1.99   34.80
  -3   7   1   28.49   12.17
  -3   7   1   31.72   15.73
   3  -7  -1   28.23   15.74
   3   7  -1   14.24   15.50
   3   7  -1   38.89   15.85
  -3  -7   1   49.62   11.52
  -3  -7   1   23.88   16.08
  -3   7   2    2.25    5.67
  -3   7   2    6.88   12.10
   3  -7  -2   14.22   14.73
   3   7  -2    8.36    9.25
  -3  -7   2   -2.10    7.51
  -3  -7   2   10.00    5.72
  -3  -7   2    3.54   21.05
  -3   7   3 3934.46  927.50
  -3   7   3 2508.95  927.72
   3  -7  -3 5091.24  928.84
  -3  -7   3  966.95 1153.16
  -3  -7   3 4013.13  927.42
  -3  -7   3 4325.25  928.48
  -3   7   4  196.07   39.90
  -3   7   4  113.93   40.42
   3   7  -4  105.83   50.95
  -3  -7   4   47.11   49.02
  -3  -7   4  201.70   39.97
  -3  -7   4   91.73   40.98
  -3   7   5 1046.19  202.27
  -3   7   5  523.79  202.20
   3   7  -5  577.00  252.64
  -3  -7   5  255.93  251.18
  -3  -7   5 1113.98  202.43
  -3  -7   5  422.64  202.09
  -3   7   6    6.28    8.58
  -3   7   6   -1.71   11.30
  -3   7   6    5.62   11.80
   3   7  -6    4.97   13.51
  -3  -7   6   15.57   16.36
  -3  -7   6    8.74   13.71
  -3   7   7    5.52    9.29
  -3   7   7    6.95   14.43
  -3   7   7    7.22   13.31
   3   7  -7   16.83   16.89
  -3  -7   7    6.62   14.81
  -3  -7   7    9.70   15.18
  -3  -7   7    6.76   15.09
  -3   7   8    0.31   12.30
  -3   7   8    8.51   15.99
  -3   7   8   -3.97    9.87
   3   7  -8    0.69   19.29
  -3  -7   8   -3.36   17.01
  -3  -7   8    1.13   14.14
  -3   7   9 1496.16  610.89
  -3   7   9 2010.14  491.01
   3   7  -9 1562.97  612.60
  -3  -7   9 1557.05  491.66
  -3   7  10  378.67  147.41
  -3   7  10  478.76  117.71
   3   7 -10  276.12  148.94
  -3  -7  10  437.52  123.43
  -3   7  11    7.59   23.44
  -3   7  11    2.16   22.61
   3   7 -11    7.68   21.05
  -3  -7  11    9.81   41.41
  -3   7  12   -0.09   25.76
  -3   7  12   25.63   30.36
  -3  -7  12    7.00   28.84
  -3  -7  12    5.27   53.55
  -3   7  13   25.79   43.73
  -3   8   1   44.33   11.87
  -3   8   1   40.05   16.47
   3  -8  -1   50.25   16.53
   3   8  -1   18.57   14.96
   3   8  -1   20.00   15.41
   3   8  -1   56.30   16.07
  -3  -8   1   12.87   15.64
  -3  -8   1   42.48   11.32
  -3  -8   1   21.65   15.57
  -3   8   2  413.10  101.30
  -3   8   2  329.86  102.56
   3  -8  -2  549.02  103.74
   3   8  -2  302.74  127.79
   3   8  -2  409.98  102.30
  -3  -8   2  120.67  126.52
  -3  -8   2  632.28  105.08
  -3   8   3  757.50  216.89
  -3   8   3  719.61  218.34
   3  -8  -3  863.43  218.01
   3   8  -3  521.07  271.54
  -3  -8   3  797.71  218.20
  -3   8   4 5967.90 1030.74
  -3   8   4 3180.68 1030.80
   3   8  -4 2826.05 1282.47
  -3  -8   4 1587.23 1281.04
  -3  -8   4 4003.92 1031.19
  -3   8   5  565.34  124.30
  -3   8   5  233.11  124.27
   3   8  -5  430.66  156.57
  -3  -8   5  232.53  154.73
  -3  -8   5  602.70  124.66
  -3  -8   5  340.18  124.79
  -3   8   6   25.50   17.26
  -3   8   6   48.19   17.08
   3   8  -6   19.06   21.83
  -3  -8   6   60.31   20.58
  -3  -8   6   10.78   19.13
  -3   8   7  100.21   40.47
  -3   8   7   93.15   42.89
  -3   8   7  132.53   33.93
  -3  -8   7  105.98   36.10
  -3  -8   7   29.72   32.76
  -3   8   8  203.76   82.51
  -3   8   8  180.28   85.16
  -3   8   8  292.23   65.88
   3   8  -8  223.09   85.18
  -3  -8   8  138.21   67.28
  -3   8   9   52.03   20.22
   3   8  -9   28.09   29.17
  -3  -8   9   43.37   31.16
  -3   8  10  322.41  125.31
  -3   8  10  423.78  100.59
   3   8 -10  222.22  127.19
  -3  -8  10  336.65  105.46
  -3   8  11    9.02   24.85
  -3   8  11   29.02   23.99
   3   8 -11    6.79   28.64
  -3  -8  11   19.08   43.92
  -3   8  12    7.07   29.94
   3   8 -12    5.01   28.69
  -3  -8  12   -3.49   56.35
  -3   8  13  113.05   51.23
  -3   9   1   10.87   13.39
  -3   9   1   23.38    8.21
  -3   9   1   19.38   15.15
   3  -9  -1   21.55   13.98
   3   9  -1   27.82   16.90
  -3  -9   1    6.06   10.34
  -3  -9   1   30.84   19.99
  -3   9   2 1600.84  419.31
  -3   9   2 1400.30  420.25
   3  -9  -2 2409.56  421.05
  -3  -9   2  641.64  521.87
  -3  -9   2 1638.37  419.30
  -3  -9   2 1716.82  420.44
  -3   9   3 1429.39  270.20
  -3   9   3  671.50  270.75
   3  -9  -3 1172.27  271.11
   3   9  -3  740.32  337.58
  -3  -9   3  251.94  335.92
  -3  -9   3 1127.77  269.90
  -3  -9   3 1213.40  271.51
  -3   9   4   27.55   11.84
  -3   9   4    4.31   17.65
   3   9  -4    8.20   16.57
  -3  -9   4    1.41   13.71
  -3  -9   4   70.84   16.27
  -3  -9   4   14.27   24.27
  -3   9   5  203.67   69.68
  -3   9   5  295.93   55.62
  -3  -9   5   96.46   68.85
  -3  -9   5  103.31   56.36
  -3   9   6   57.60   24.64
  -3   9   6   83.56   21.95
   3   9  -6   47.82   26.82
  -3  -9   6   18.34   22.45
  -3  -9   6   55.73   22.29
  -3  -9   6   35.76   23.52
  -3   9   7   56.87   30.57
  -3   9   7  113.76   26.33
   3   9  -7   54.82   31.59
  -3  -9   7   27.79   24.23
  -3  -9   7   14.22   22.62
  -3   9   8 1300.26  484.95
  -3   9   8 1448.80  389.32
   3   9  -8 1321.52  486.88
  -3  -9   8 1033.03  390.00
  -3   9   9  464.83  200.44
  -3   9   9  706.60  160.98
  -3  -9   9  410.77  163.15
  -3   9  10   18.42   24.71
  -3   9  10   21.52   20.93
   3   9 -10   21.47   30.05
  -3  -9  10   25.83   38.31
  -3   9  11    2.19   22.66
  -3   9  11    7.58   28.49
   3   9 -11    6.65   27.09
  -3  -9  11   -1.61   47.08
  -3   9  12   13.36   26.48
  -3   9  13  108.46   50.68
  -3  10   1   36.53   23.45
  -3  10   1   50.57   16.23
  -3  10   1   38.09   19.72
   3 -10  -1   60.73   22.76
   3  10  -1   65.19   21.76
  -3 -10   1   27.22   23.36
  -3 -10   1   67.95   17.52
  -3 -10   1   65.01   27.14
  -3  10   2   39.10   24.06
  -3  10   2   76.23   16.79
  -3  10   2   44.10   20.49
   3 -10  -2   21.62   20.84
   3 -10  -2   67.01   24.24
   3  10  -2   39.78   22.89
   3  10  -2   57.34   19.74
  -3 -10   2   21.73   21.23
  -3 -10   2   85.81   18.36
  -3  10   3  838.62  338.83
  -3  10   3  621.19  338.36
  -3  10   3 1280.08  271.30
  -3  10   3  899.49  272.18
  -3 -10   3  327.40  337.46
  -3 -10   3 1288.05  271.19
  -3 -10   3 1566.06  273.53
  -3  10   4   18.34   21.14
  -3  10   4   26.78   22.31
  -3  10   4   77.51   17.78
  -3  10   4   39.11   21.33
   3  10  -4   49.81   25.10
  -3 -10   4   37.40   22.33
  -3 -10   4   75.22   19.61
  -3  10   5  258.67   87.30
  -3  10   5  133.01   87.05
  -3  10   5  321.47   69.15
   3  10  -5  208.53   88.63
  -3 -10   5  108.68   86.28
  -3 -10   5  372.24   70.09
  -3 -10   5  167.69   72.16
  -3  10   6  201.62   68.96
  -3  10   6  272.94   54.42
   3  10  -6  215.36   70.54
  -3 -10   6   71.01   66.69
  -3 -10   6  193.94   54.95
  -3 -10   6  104.82   54.74
  -3  10   7  130.09   41.63
  -3  10   7  109.57   43.89
  -3  10   7  176.66   34.69
   3  10  -7  104.92   47.33
  -3 -10   7   32.43   42.12
  -3 -10   7   53.99   35.56
  -3  10   8  326.41  128.70
  -3  10   8  386.17  102.75
   3  10  -8  361.20  131.76
  -3 -10   8  255.49  105.47
  -3  10   9  227.50   91.19
  -3  10   9  296.45   72.78
  -3 -10   9  128.37   76.54
  -3  10  10   -5.89   23.72
  -3  10  10   -1.30   20.26
   3  10 -10   -1.45   29.29
  -3 -10  10   11.04   29.99
  -3  10  11    7.09   28.92
   3  10 -11    0.07   33.41
  -3 -10  11   -9.74   53.26
  -3  10  12  228.12   75.61
  -3  10  13  239.77   83.81
  -3  11   1    1.44   12.93
  -3  11   1    1.21    5.40
  -3  11   1   -0.28   12.07
   3 -11  -1    2.76    9.02
   3 -11  -1    5.62   17.10
   3  11  -1    2.08    7.90
   3  11  -1   -0.72   18.94
  -3 -11   1    0.38   11.95
  -3 -11   1    2.23    7.95
  -3 -11   1    2.80   21.56
  -3  11   2   26.56    9.27
  -3  11   2   10.56   14.79
   3 -11  -2    3.30   12.45
   3 -11  -2   15.94   15.96
   3  11  -2    1.46   11.41
  -3 -11   2    3.79   10.97
  -3 -11   2   45.89   10.41
  -3 -11   2   24.12   21.58
  -3  11   3  264.10   50.17
  -3  11   3   98.95   53.87
   3  11  -3  105.69   64.01
  -3 -11   3   30.49   61.70
  -3 -11   3  292.03   50.20
  -3 -11   3   57.57   50.07
  -3  11   4   13.00   32.28
  -3  11   4  210.81   27.56
   3  11  -4   30.59   34.37
  -3 -11   4   14.70   32.55
  -3 -11   4   82.19   37.08
  -3  11   5   94.85   30.16
  -3  11   5   28.28   27.79
  -3  11   5  102.75   24.77
   3  11  -5   69.01   32.47
  -3 -11   5   34.17   28.92
  -3 -11   5   51.13   23.74
  -3  11   6   50.38   19.12
  -3  11   6   22.91   19.79
  -3  11   6   45.57   18.90
   3  11  -6   27.00   26.59
  -3 -11   6    9.81   16.51
  -3 -11   6   16.59   15.73
  -3  11   7  389.28  145.36
  -3  11   7  309.48  147.14
  -3  11   7  511.77  116.39
   3  11  -7  379.65  148.22
  -3 -11   7  163.21  116.94
  -3  11   8   84.32   35.26
  -3  11   8   89.49   27.68
   3  11  -8   73.84   40.80
  -3 -11   8   40.67   36.32
  -3  11   9  131.40   54.67
  -3  11   9  176.17   43.45
   3  11  -9  120.67   60.40
  -3 -11   9   66.72   52.37
  -3  11  10   82.23   45.19
  -3  11  10  154.77   36.23
   3  11 -10   92.19   52.15
  -3 -11  10   57.07   49.67
  -3  11  11    5.45   19.68
  -3  11  11    6.21   24.86
   3  11 -11   -1.53   36.28
  -3  11  12   15.99   30.78
  -3  11  13  123.95   56.05
  -3  12   1  410.71  192.05
  -3  12   1  646.79  152.43
  -3  12   1  468.88  153.75
   3 -12  -1  665.82  154.04
   3  12  -1  253.30  190.73
   3  12  -1  675.21  153.99
  -3 -12   1  277.67  190.55
  -3 -12   1  684.49  152.35
  -3 -12   1  619.11  154.01
  -3  12   2  165.41   63.61
  -3  12   2  245.70   48.87
  -3  12   2  129.39   51.33
   3 -12  -2   72.95   61.10
   3 -12  -2  232.12   51.03
  -3 -12   2   55.34   61.02
  -3 -12   2  242.82   48.66
  -3 -12   2  205.23   53.53
  -3  12   3    4.63   20.04
  -3  12   3   59.02   15.24
   3  12  -3    9.74   21.50
  -3 -12   3   29.30   24.47
  -3  12   4  306.70  245.12
  -3  12   4  906.77  196.52
   3  12  -4  595.48  246.76
  -3  12   5   33.03   20.06
  -3  12   5    6.06   15.21
  -3  12   5   43.80   14.74
   3  12  -5   25.64   21.02
  -3 -12   5   11.13   16.67
  -3 -12   5    9.01   13.70
  -3 -12   5   20.23   25.69
  -3  12   6  102.09   34.99
  -3  12   6   35.46   35.21
  -3  12   6  146.51   28.61
   3  12  -6  113.64   42.14
  -3 -12   6   27.42   34.01
  -3 -12   6   63.26   30.24
  -3 -12   6   64.43   39.48
  -3  12   7   40.36   23.40
  -3  12   7   46.42   21.92
   3  12  -7   38.59   30.88
  -3 -12   7   18.93   25.92
  -3  12   8   71.17   31.57
  -3  12   8   60.51   23.64
   3  12  -8   65.74   39.72
  -3  12   9    1.70   19.64
  -3  12   9   -5.32   14.23
   3  12  -9   -0.30   28.96
  -3  12  10  106.99   37.77
  -3  12  11   26.04   25.97
   3  12 -11    3.24   38.37
  -3  12  12    7.15   37.42
  -3  13   1    8.06   17.21
  -3  13   1    2.79    5.83
   3 -13  -1    0.97   18.70
   3  13  -1   -0.37   10.02
  -3 -13   1   -0.67   13.32
  -3 -13   1   17.59   10.28
  -3 -13   1    8.52   17.93
  -3  13   2   51.22   43.44
  -3  13   2  142.97   31.83
   3 -13  -2  153.60   34.64
   3  13  -2   30.14   40.25
  -3  13   3  115.10   92.31
  -3  13   3  584.36   73.82
   3 -13  -3  134.50   91.54
   3  13  -3  274.15   94.35
  -3 -13   3   49.19   90.68
  -3  13   4   47.35   35.87
  -3  13   4   58.61   39.75
  -3  13   4  150.77   29.59
   3  13  -4  119.39   40.62
  -3 -13   4   56.50   36.60
  -3  13   5   17.21   19.66
  -3  13   5   50.50   14.92
   3  13  -5    5.48   21.39
  -3 -13   5    0.19   17.04
  -3  13   6   26.75   31.55
  -3  13   6  108.17   27.77
   3  13  -6   75.54   36.95
  -3 -13   6   28.89   28.19
  -3  13   7   19.09   18.45
  -3  13   7   24.00   16.43
   3  13  -7   14.90   28.40
  -3 -13   7   -2.60   23.23
  -3  13   8   -0.17   16.84
  -3  13   8    6.14   11.61
   3  13  -8   -2.55   25.45
  -3 -13   8   17.16   29.54
  -3  13   9 1078.14  438.13
  -3  13   9 1316.79  351.50
   3  13  -9 1168.53  441.54
  -3  13  10    1.51   34.24
  -3  13  10  188.91   34.25
   3  13 -10  105.13   46.86
  -3 -13  10   16.33   60.90
  -3  13  11  113.37   38.18
   3  13 -11   54.27   51.78
  -3  13  12   24.42   39.80
  -3  14   1   11.51   21.30
  -3  14   1   23.97    7.42
   3 -14  -1   23.12   16.81
   3  14  -1    8.48   12.61
  -3 -14   1    0.32   14.22
  -3  14   2   43.39   23.62
  -3  14   2   54.21   12.17
   3 -14  -2   13.57   16.94
   3 -14  -2   57.53   21.02
   3  14  -2   18.95   16.45
  -3 -14   2    7.22   16.37
  -3  14   3   -1.02   14.17
  -3  14   3   13.94   12.61
   3 -14  -3    5.37   16.19
   3  14  -3   11.03   20.95
  -3 -14   3   -4.33   11.37
  -3  14   4 2339.91  363.28
   3 -14  -4  585.37  451.87
   3  14  -4 1433.44  454.17
  -3 -14   4  592.42  451.36
  -3  14   5  404.84  182.10
  -3  14   5  179.66  181.84
  -3  14   5  716.63  145.43
  -3  14   6   57.08   35.14
  -3  14   6   77.80   27.20
   3  14  -6   65.09   36.65
  -3  14   7    6.86   18.01
  -3  14   7   -5.77   15.79
   3  14  -7  -10.27   28.53
  -3  14   8  313.79  119.62
  -3  14   8  343.42   94.38
   3  14  -8  249.23  124.16
  -3  14   9  221.60   83.32
  -3  14   9  222.97   65.19
   3  14  -9  156.09   91.30
  -3  14  10   10.23   61.12
  -3  14  10  320.59   50.80
   3  14 -10  200.84   72.26
  -3  14  11  541.26  167.32
  -3  14  12   27.74   34.51
  -3  15   1   13.12   21.88
  -3  15   1   10.80    8.15
   3 -15  -1   -0.18   12.92
   3 -15  -1    7.64   22.91
   3  15  -1    2.48   11.71
  -3 -15   1    1.15   12.38
  -3  15   2  155.15   67.01
  -3  15   2  336.94   50.70
   3  15  -2   94.71   64.03
  -3 -15   2   29.05   62.42
  -3  15   3  679.97  385.71
  -3  15   3 2097.90  309.45
   3 -15  -3  657.52  385.05
   3  15  -3 1462.96  387.43
  -3 -15   3  293.32  384.42
  -3  15   4  507.03   93.58
   3 -15  -4   82.10  117.36
   3  15  -4  280.46  119.41
  -3  15   5  369.53  265.31
  -3  15   5 1000.08  212.65
   3  15  -5  630.65  267.38
  -3  15   6  142.54   53.65
   3  15  -6   87.73   54.12
  -3  15   7    4.13   22.97
  -3  15   7    5.71   19.59
   3  15  -7    5.60   31.00
  -3  15   8  181.99   78.32
  -3  15   8  220.24   61.06
   3  15  -8  171.47   85.82
  -3  15   9   15.68  103.85
  -3  15   9  621.27   85.89
  -3  15  10   -5.73  107.49
  -3  15  10  584.80   88.57
   3  15 -10  452.41  121.49
  -3  15  11   54.37   33.78
  -3  15  12   63.61   48.04
  -3  16   1  310.17  118.71
  -3  16   1  505.83   91.99
   3 -16  -1   87.46  114.68
   3 -16  -1  493.04   94.90
   3  16  -1  180.83  115.46
  -3  16   2  434.94  146.53
  -3  16   2  612.58  114.61
   3 -16  -2  176.21  143.24
   3  16  -2  254.06  144.18
  -3  16   3  592.04  466.11
  -3  16   3 1598.86  373.69
   3  16  -3 1260.32  467.58
  -3  16   4  275.15  342.55
  -3  16   4 1407.25  275.17
   3  16  -4  709.47  344.85
  -3  16   5  278.84  217.66
  -3  16   5  818.22  174.51
   3  16  -5  538.55  220.41
  -3  16   6  102.44   52.59
  -3  16   6  147.50   39.10
   3  16  -6   82.65   54.38
  -3  16   7  276.03  114.54
  -3  16   7  314.18   90.46
   3  16  -7  288.92  119.03
  -3  16   8  147.00   64.52
  -3  16   8  153.61   47.88
   3  16  -8  149.16   75.95
  -3  16   9    9.82   32.96
  -3  16   9   72.01   23.46
   3  16  -9   65.93   51.72
  -3  16  10   90.52   32.48
   3  16 -10   43.39   52.10
  -3  16  11   39.67   33.16
  -3  17   1    8.97   26.56
  -3  17   1   16.32    9.34
   3 -17  -1    0.19   21.99
   3  17  -1    0.54   14.55
  -3  17   2  875.97  449.88
  -3  17   2 1663.35  359.73
   3  17  -2  559.39  448.73
  -3  17   3   27.45   30.06
  -3  17   3   85.06   24.97
   3  17  -3   65.70   38.13
  -3  17   4    2.08   15.50
  -3  17   4   18.95   14.07
   3  17  -4    1.36   23.34
  -3  17   5    3.37   15.64
  -3  17   5   34.40   16.20
   3  17  -5    5.98   26.20
  -3  17   6  122.82   37.14
   3  17  -6   83.43   53.33
  -3  17   7  393.40  152.51
  -3  17   7  402.66  119.53
   3  17  -7  377.36  155.24
  -3  17   8    0.64  189.71
  -3  17   8  916.38  152.57
   3  17  -8  750.18  199.61
  -3  17   9   -1.08   30.18
  -3  17   9    7.61   18.15
   3  17  -9   -5.42   41.04
  -3  17  10   19.38   30.82
  -3  17  11    4.15   31.33
  -3  18   1    1.71   28.11
  -3  18   1   27.18   12.56
   3 -18  -1   35.32   23.28
   3  18  -1    7.77   17.52
  -3  18   2   59.73   39.31
  -3  18   2   86.20   23.17
   3  18  -2   32.76   31.46
  -3  18   3   68.00   66.94
  -3  18   3  208.50   52.58
   3  18  -3  190.59   72.03
  -3  18   4  268.67  266.97
  -3  18   4  984.32  213.81
   3  18  -4  698.22  270.24
  -3  18   5   24.76   25.77
  -3  18   5   72.31   22.67
   3  18  -5   42.01   35.24
  -3  18   6   99.16   56.94
  -3  18   6  148.32   40.60
   3  18  -6  100.60   60.41
  -3  18   7   39.61   36.86
  -3  18   7   39.05   17.13
   3  18  -7   27.74   35.60
  -3  18   8   -5.28   39.05
  -3  18   8  124.25   24.29
  -3  18   9    3.37   35.71
  -3  18   9   67.37   26.85
   3  18  -9   37.18   46.26
  -3  18  10   61.06   33.88
  -3  19   1   35.72   14.65
   3  19  -1    2.40   17.81
  -3  19   2  136.62  111.48
  -3  19   2  343.85   85.70
  -3  19   3   61.55  114.55
  -3  19   3  471.18   91.20
   3  19  -3  176.79  117.30
  -3  19   4   -0.15   17.04
  -3  19   4   24.30   18.55
   3  19  -4   16.07   38.10
  -3  19   5   39.81   42.08
  -3  19   5  123.66   35.39
   3  19  -5  122.63   51.25
  -3  19   6   28.88   34.25
  -3  19   6   48.26   24.16
   3  19  -6   40.47   42.23
  -3  19   7   13.61   48.34
  -3  19   7  148.95   31.81
   3  19  -7  111.34   51.18
  -3  19   8    1.96   36.96
  -3  19   8   31.05   17.74
  -3  19   9  270.53   71.25
   3  19  -9  142.17   97.64
  -3  19  10   20.39   29.50
  -3  20   1  429.56  107.67
   3  20  -1  199.63  136.51
  -3  20   2   71.10   49.35
  -3  20   2   97.18   31.33
  -3  20   3   77.60  122.48
  -3  20   3  459.66   96.74
   3  20  -3  269.22  128.92
  -3  20   4  103.78  110.92
  -3  20   4  374.09   88.23
   3  20  -4  328.14  118.26
  -3  20   5  155.05  101.18
  -3  20   5  331.82   78.83
   3  20  -5  231.95  107.61
  -3  20   6    3.64   29.04
  -3  20   6   46.49   24.11
   3  20  -6   22.35   42.82
  -3  20   7   -0.99   42.26
  -3  20   7   87.61   24.31
   3  20  -7   69.80   49.32
  -3  20   8   56.34   29.36
   3  20  -8   88.16   68.86
  -3  20   9    9.51   29.20
  -3  21   1   -0.26   26.72
  -3  21   1    6.96   16.14
   3  21  -1   -4.65   22.08
  -3  21   2  112.84  106.10
  -3  21   2  389.98   80.39
   3  21  -2  117.68  102.96
  -3  21   3   78.10   66.07
  -3  21   3  196.43   49.71
   3  21  -3  137.07   71.84
  -3  21   4  140.64  103.81
  -3  21   4  330.63   81.90
   3  21  -4  255.49  110.06
  -3  21   5   -0.16   28.72
  -3  21   5    5.62   26.09
   3  21  -5   49.12   44.83
  -3  21   6  -10.73   37.88
  -3  21   6   98.92   28.64
   3  21  -6   80.10   52.23
  -3  21   7    9.85   49.12
  -3  21   7   45.85   27.13
   3  21  -7   37.93   41.58
  -3  21   8   37.51   25.08
  -3  21   9  363.27  116.39
  -3  22   1    2.19   17.19
   3  22  -1    8.49   23.76
  -3  22   2   -1.22   55.66
  -3  22   2  166.20   36.27
   3  22  -2   69.20   52.77
  -3  22   3  126.77   43.15
   3  22  -3  113.05   70.52
  -3  22   4    9.60  107.48
  -3  22   4  393.17   86.28
   3  22  -4  339.76  118.13
  -3  22   5    7.09  204.48
  -3  22   5  813.76  164.51
   3  22  -5  717.87  212.96
  -3  22   6   15.83   33.66
  -3  22   6   18.75   23.28
   3  22  -6   14.53   47.24
  -3  22   7   13.54   22.51
   3  22  -7   36.75   50.12
  -3  22   8   -1.17   28.33
  -3  23   1    6.35   40.70
  -3  23   1   -7.03   18.85
   3  23  -1   -1.53   25.33
  -3  23   2    2.96   48.65
  -3  23   2    6.06   25.12
   3  23  -2  252.88   44.94
  -3  23   3   -9.08   54.49
  -3  23   3   -6.88   34.70
   3  23  -3  405.45   65.42
  -3  23   4    1.06   33.26
  -3  23   4   -3.39   22.23
   3  23  -4   81.27   53.85
  -3  23   5    2.73   36.18
  -3  23   5   -1.95   33.98
   3  23  -5  253.64   62.20
  -3  23   6    1.21   22.78
   3  23  -6  104.92   56.72
  -3  23   7    2.95   25.91
  -3  24   1    3.88   55.19
  -3  24   1    2.77   36.45
  -3  24   2   10.33   50.42
  -3  24   2   -3.93   24.89
   3  24  -2  233.10   50.99
  -3  24   3   -0.17   61.37
  -3  24   3    2.13   39.69
   3  24  -3  437.24   79.86
  -3  24   4    9.10   34.81
   3  24  -4    0.05   45.15
  -3  24   5    5.59   28.62
   3  24  -5  158.75   54.29
  -3  24   6    0.44   26.69
  -3  25   1   11.15   48.73
  -3  25   1   -0.14   18.67
   3  25  -1   15.33   30.15
  -3  25   2    6.38   58.52
  -3  25   2   -8.60   34.79
   3  25  -2  350.55   66.03
  -3  25   3   17.80   29.03
   3  25  -3   22.11   52.96
  -3  25   4   -2.80   32.38
   3  25  -4    0.31   58.57
  -3  25   5   -0.33   21.48
  -3  26   1    6.49   26.11
   3  26  -1  -12.77   31.59
  -3  26   2   21.70   28.78
   3  26  -2   27.06   52.83
  -2   0   1   13.26   15.03
  -2   0   1   84.14   18.09
   2   0  -1   86.07   20.73
  -2   0   2 1630.63  476.62
  -2   0   2 1521.53  476.82
   2   0  -2 1595.20  476.99
  -2   0   3    3.79    5.95
  -2   0   3   -1.55    6.10
  -2   0   4   22.14   13.17
  -2   0   4   32.16   13.93
  -2   0   4   36.02   12.23
  -2   0   4   32.77   12.01
   2   0  -4   35.10   10.81
  -2   0   5    0.97    6.41
  -2   0   5    1.31    5.57
  -2   0   5    8.49   10.56
   2   0  -5   -0.48    6.04
  -2   0   6 3952.86 1650.89
  -2   0   6 4793.79 1327.55
  -2   0   6 4186.72 1327.84
   2   0  -6 4952.65 1651.46
   2   0  -6 4419.91 1327.44
  -2   0   7    5.06    9.21
  -2   0   7    2.08    9.49
  -2   0   7    6.34    9.16
  -2   0   7    0.20   10.99
   2   0  -7   -1.93    7.12
   2   0  -7   -2.52    6.98
  -2   0   8   99.26   28.48
  -2   0   8   98.09   29.63
  -2   0   8   71.72   22.76
  -2   0   8   48.96   23.12
   2   0  -8   20.07   21.32
  -2   0   9    1.19   15.05
  -2   0   9    1.71   13.70
  -2   0   9   -3.87   14.08
  -2   0   9    0.33    9.82
   2   0  -9   -0.47    7.47
  -2   0  10    8.17   18.46
  -2   0  10    0.71   14.61
  -2   0  11   31.90   24.32
  -2   0  11   11.78   20.51
  -2   0  12  931.23  354.99
  -2   0  12  985.62  285.85
  -2   0  13    4.92   22.97
  -2   0  13    2.53   27.58
  -2   0  14   -0.23   29.02
  -2   0  14   38.99   55.02
  -2   1   1 5383.94 1832.81
   2  -1  -1 5266.71 1832.84
   2   1  -1 5099.81 1832.78
  -2  -1   1 7491.37 1832.73
  -2  -1   1 5592.43 1832.81
  -2   1   2  245.00   70.59
  -2   1   2  211.82   70.94
   2  -1  -2  265.73   71.83
   2   1  -2  245.85   71.54
  -2  -1   2  245.92   70.55
  -2  -1   2  169.60   70.80
  -2   1   3   14.61    8.27
  -2   1   3    5.40    8.46
  -2  -1   3   18.74    8.14
  -2  -1   3   13.24    7.50
  -2   1   4  506.47  184.85
  -2   1   4  556.38  147.54
   2  -1  -4  533.38  147.41
   2   1  -4  291.28  184.35
   2   1  -4  573.63  147.44
  -2  -1   4  401.12  184.40
  -2  -1   4  536.77  147.49
  -2  -1   4  450.21  147.66
  -2   1   5  968.08  419.36
  -2   1   5 1147.08  420.52
  -2   1   5 1234.97  336.96
  -2   1   5 1281.85  337.34
   2  -1  -5 1148.71  336.79
   2   1  -5  882.02  419.98
   2   1  -5 1281.49  336.82
  -2  -1   5 1078.29  420.14
  -2  -1   5 1269.83  336.89
  -2  -1   5  991.17  337.07
  -2   1   6  367.27  158.53
  -2   1   6  489.18  159.82
  -2   1   6  399.75  126.92
  -2   1   6  422.32  127.36
   2  -1  -6  454.67  126.87
   2   1  -6  331.28  159.04
   2   1  -6  411.55  126.79
  -2  -1   6  526.92  159.67
  -2  -1   6  486.03  127.06
  -2  -1   6  387.61  127.26
  -2   1   7  817.24  287.51
  -2   1   7  934.16  288.91
  -2   1   7  673.07  230.86
   2  -1  -7  667.76  230.30
   2   1  -7  845.32  288.11
   2   1  -7  575.57  230.27
  -2  -1   7 1090.16  289.08
  -2  -1   7  747.75  230.55
  -2  -1   7  803.06  231.06
  -2   1   8    3.97   10.53
  -2   1   8   -2.41   10.28
  -2   1   8   -3.73   11.25
   2   1  -8   -0.19    8.53
   2   1  -8   -0.47    8.20
  -2  -1   8    3.31   10.97
  -2  -1   8    4.31   13.14
  -2  -1   8    5.26    9.27
  -2   1   9    2.58   14.41
  -2   1   9   -1.05   12.56
  -2   1   9   -3.34   16.64
  -2   1   9    0.40   10.12
   2  -1  -9   -0.27    9.00
   2   1  -9    3.13    7.61
  -2  -1   9    4.89   14.55
  -2  -1   9    2.25   14.00
  -2  -1   9   -0.24   13.51
  -2   1  10  232.80   89.42
  -2   1  10  204.41   71.21
   2   1 -10  275.69   90.43
  -2  -1  10  231.65   89.49
  -2  -1  10  190.54   71.52
  -2   1  11 1457.32  500.27
  -2   1  11 1209.42  401.54
  -2  -1  11 1356.14  500.42
  -2  -1  11 1150.12  401.62
  -2   1  12   83.52   41.88
  -2   1  12  112.16   39.58
  -2  -1  12   78.73   38.96
  -2  -1  12   75.79   39.46
  -2   1  13    9.48   27.98
  -2   1  13    4.80   27.16
  -2  -1  13    2.67   28.45
  -2  -1  13    9.75   28.47
  -2   1  14   -4.88   26.56
  -2   1  14  118.47   40.57
  -2  -1  14  136.24   61.39
  -2   2   1   72.16   24.31
  -2   2   1   71.85   25.03
   2   2  -1   78.55   25.68
  -2  -2   1   93.20   23.93
  -2  -2   1   61.22   24.82
  -2   2   2   17.84    7.57
  -2   2   2   17.87    8.55
   2  -2  -2   16.69   12.66
   2   2  -2   18.98   11.28
  -2  -2   2   15.08    6.61
  -2  -2   2   19.69    9.84
  -2   2   3  105.11   29.18
  -2   2   3   71.28   29.34
   2  -2  -3   83.63   30.89
  -2  -2   3  103.65   29.32
  -2  -2   3   78.02   29.20
  -2   2   4   60.50   28.13
  -2   2   4   76.16   29.32
  -2   2   4   83.75   23.06
   2  -2  -4   83.75   22.59
   2   2  -4   55.68   28.88
  -2  -2   4   79.39   23.08
  -2   2   5 1152.51  525.48
  -2   2   5 1615.00  526.77
  -2   2   5 1651.99  422.36
  -2   2   5 1243.32  422.54
   2  -2  -5 1539.47  422.24
   2   2  -5 1466.14  422.19
  -2  -2   5 1281.73  526.25
  -2  -2   5 1447.53  422.22
  -2  -2   5 1370.83  422.53
  -2   2   6  877.70  394.73
  -2   2   6 1179.27  396.08
  -2   2   6 1146.89  317.02
  -2   2   6 1081.37  317.42
   2  -2  -6 1004.87  316.88
   2   2  -6 1031.82  395.55
   2   2  -6 1070.94  316.89
  -2  -2   6 1314.32  395.91
  -2  -2   6 1122.69  317.04
  -2  -2   6  915.53  317.22
  -2   2   7   28.72   17.37
  -2   2   7   40.88   15.58
  -2   2   7   25.43   15.51
   2  -2  -7   27.74   14.50
   2   2  -7   32.89   18.01
   2   2  -7   69.92   15.12
  -2  -2   7   37.90   21.10
  -2  -2   7   50.50   16.93
  -2  -2   7   25.04   16.43
  -2   2   8  247.62   59.46
  -2   2   8  193.29   46.04
  -2   2   8  150.26   46.09
   2  -2  -8   64.56   44.77
   2   2  -8  213.70   58.05
   2   2  -8   52.80   44.84
  -2  -2   8  249.02   59.45
  -2  -2   8  198.06   46.57
  -2  -2   8   97.87   46.20
  -2   2   9   14.81   13.74
  -2   2   9   10.46   14.28
  -2   2   9    0.82   13.86
   2  -2  -9    3.14    8.06
   2   2  -9   14.81   11.14
   2   2  -9    1.46    8.52
  -2  -2   9   11.59   14.76
  -2  -2   9   10.66   14.87
  -2   2  10  483.33  187.63
  -2   2  10  471.21  150.30
   2   2 -10  588.78  188.92
  -2  -2  10  434.49  150.48
  -2   2  11  546.09  211.94
  -2   2  11  529.32  169.83
   2   2 -11  601.90  212.98
  -2  -2  11  570.98  212.63
  -2  -2  11  551.57  170.86
  -2   2  12  535.95  200.61
  -2   2  12  545.75  162.38
  -2  -2  12  521.91  201.08
  -2  -2  12  512.29  161.71
  -2   2  13   -1.09   15.77
  -2   2  13   11.03   26.61
  -2  -2  13   -4.81   21.33
  -2  -2  13   17.44   44.06
  -2   2  14    4.05   24.45
  -2   2  14   54.37   43.53
  -2  -2  14    8.11   30.29
  -2  -2  14   63.90   60.00
  -2   3   1  100.39   28.93
  -2   3   1   90.42   29.53
   2  -3  -1   96.83   32.09
   2   3  -1   86.40   29.91
  -2  -3   1   98.72   28.57
  -2  -3   1   72.16   28.87
  -2   3   2  253.37   72.83
  -2   3   2  258.35   73.33
   2  -3  -2  229.55   73.84
   2   3  -2  237.55   73.61
  -2  -3   2  236.84   72.76
  -2  -3   2  232.05   73.16
  -2   3   3  142.18   36.86
  -2   3   3   93.28   36.98
   2  -3  -3  110.43   38.35
   2   3  -3  101.33   46.96
  -2  -3   3  127.94   36.85
  -2  -3   3  115.74   37.09
  -2   3   4   43.84   27.32
  -2   3   4   88.59   22.62
  -2   3   4   54.62   22.75
   2  -3  -4   90.85   22.12
   2   3  -4   69.72   28.55
   2   3  -4   88.42   22.00
  -2  -3   4   65.55   28.20
  -2  -3   4   72.79   22.85
  -2  -3   4   60.37   22.48
  -2   3   5   80.00   37.50
  -2   3   5  120.23   39.38
  -2   3   5  120.40   31.43
  -2   3   5   87.43   30.90
   2  -3  -5   99.68   30.02
   2   3  -5   94.32   38.56
   2   3  -5  105.86   29.91
  -2  -3   5   89.36   29.86
  -2  -3   5   71.71   30.60
  -2   3   6   27.12   13.91
  -2   3   6   40.21   16.39
  -2   3   6   24.76   11.98
  -2   3   6   35.85   14.81
   2  -3  -6   33.40   11.87
   2   3  -6   29.70   15.03
   2   3  -6   32.78   12.20
  -2  -3   6   31.67   15.82
  -2  -3   6   36.40   13.63
  -2  -3   6   35.41   14.23
  -2   3   7    2.72    6.15
  -2   3   7   -1.57    9.97
  -2   3   7    5.54    9.66
  -2   3   7    3.10   11.22
   2  -3  -7    4.59    7.01
   2   3  -7    4.71    7.11
   2   3  -7   -0.38    6.79
  -2  -3   7    1.29   12.43
  -2  -3   7    0.64   10.37
  -2  -3   7    2.94    9.33
  -2   3   8    8.40    7.69
  -2   3   8    7.64   12.29
  -2   3   8    9.14   10.68
  -2   3   8    6.07   15.23
   2  -3  -8    1.07    8.75
   2   3  -8    7.72    9.07
   2   3  -8   -0.61    6.92
  -2  -3   8   12.50   13.72
  -2  -3   8    6.91   14.17
  -2  -3   8    7.37   13.56
  -2   3   9  346.07   95.51
  -2   3   9  318.33   97.32
  -2   3   9  369.77   76.91
   2   3  -9  283.75   95.99
   2   3  -9   23.12   74.75
  -2  -3   9  353.29   97.65
  -2  -3   9  142.33   76.17
  -2   3  10  547.03  203.65
  -2   3  10  523.19  163.30
   2   3 -10  568.65  204.82
  -2  -3  10  508.66  163.60
  -2   3  11  355.55  133.92
  -2   3  11  305.34  107.02
   2   3 -11  390.96  134.96
  -2  -3  11  316.80  107.75
  -2   3  12  118.55   57.39
  -2   3  12  177.88   50.17
   2   3 -12  155.04   60.01
  -2  -3  12  149.97   59.39
  -2  -3  12  122.68   53.42
  -2   3  13   -0.34   19.14
  -2   3  13    5.87   26.91
  -2  -3  13    6.50   21.44
  -2  -3  13   10.90   37.84
  -2   3  14   -0.12   22.80
  -2   3  14    2.67   41.12
  -2  -3  14    0.89   27.15
  -2  -3  14   -2.25   49.74
  -2   4   1   24.40   11.62
   2  -4  -1   23.93   16.51
   2   4  -1   20.50   10.04
   2   4  -1   23.13   11.25
  -2  -4   1   13.21    8.90
  -2  -4   1   26.21    8.06
  -2   4   2    8.88    5.94
  -2   4   2    3.71    6.95
   2  -4  -2   10.06   12.25
   2   4  -2    6.80    5.64
   2   4  -2   10.61   10.52
  -2  -4   2    2.72    3.82
  -2  -4   2    9.36    4.63
  -2  -4   2    9.46    8.57
  -2   4   3  522.11  217.87
  -2   4   3  819.02  175.01
  -2   4   3  545.09  175.06
   2   4  -3  641.38  218.98
  -2  -4   3  341.40  217.87
  -2  -4   3  747.26  174.82
  -2  -4   3  590.58  174.97
  -2   4   4  238.32   35.04
  -2   4   4   70.06   28.12
  -2   4   4   43.74   28.13
   2  -4  -4   53.87   27.65
   2   4  -4   46.58   36.07
   2   4  -4   52.71   27.60
  -2  -4   4   42.13   35.24
  -2  -4   4   59.41   28.29
  -2  -4   4   46.99   28.03
  -2   4   5   79.87   36.58
  -2   4   5  109.78   37.81
  -2   4   5  134.30   30.30
  -2   4   5  123.26   30.99
   2  -4  -5   97.08   29.33
   2   4  -5   91.78   37.88
  -2  -4   5   64.04   37.15
  -2  -4   5   93.47   29.32
  -2  -4   5   78.36   29.89
  -2   4   6  249.27  104.49
  -2   4   6  383.37  106.12
  -2   4   6  262.40   83.69
  -2   4   6  280.04   84.24
   2  -4  -6  261.47   83.60
   2   4  -6  275.34  105.61
   2   4  -6  305.86   83.56
  -2  -4   6  267.13  105.38
  -2  -4   6  289.58   83.80
  -2  -4   6  227.24   84.06
  -2   4   7  482.04  196.35
  -2   4   7  718.91  198.00
  -2   4   7  730.20  157.82
  -2   4   7  525.64  157.86
   2  -4  -7  381.36  157.11
   2   4  -7  538.18  197.34
   2   4  -7  402.19  157.06
  -2  -4   7  627.01  197.57
  -2  -4   7  549.28  157.61
  -2  -4   7  481.57  157.75
  -2   4   8   25.47   11.53
  -2   4   8   28.87   15.71
  -2   4   8   30.73   14.38
  -2   4   8   19.97   14.32
   2  -4  -8    9.53    9.79
   2   4  -8   28.67   13.16
   2   4  -8    1.40    9.21
  -2  -4   8   30.41   17.01
  -2  -4   8   26.13   16.08
  -2  -4   8   22.58   15.45
  -2   4   9   20.86   14.75
  -2   4   9   13.43   16.11
  -2   4   9   18.96   14.90
   2   4  -9   12.09   12.08
   2   4  -9    2.58    9.35
  -2  -4   9   16.71   16.04
  -2  -4   9   16.29   12.68
  -2   4  10    5.64   20.11
   2   4 -10   -6.00   17.50
  -2  -4  10   -0.57   18.79
  -2   4  11  182.33   76.10
  -2   4  11  215.93   62.52
   2   4 -11  198.11   77.78
  -2  -4  11  175.55   64.01
  -2   4  12   88.63   40.35
  -2   4  12  115.90   37.00
   2   4 -12   96.97   44.56
  -2  -4  12   57.11   42.72
  -2   4  13    4.21   48.41
  -2   4  13  284.15   53.42
  -2  -4  13  328.05   66.64
  -2   4  14    5.66   21.28
  -2   4  14    0.53   33.27
  -2  -4  14    3.72   26.57
  -2  -4  14  -18.65   64.04
  -2   5   1  447.09   89.42
  -2   5   1  432.35   89.90
   2  -5  -1  117.11  111.27
   2  -5  -1  450.06   90.41
   2   5  -1  382.33  111.91
   2   5  -1  355.79   89.79
  -2  -5   1  221.96  111.40
  -2  -5   1  366.25   89.43
  -2   5   2   26.84    7.61
  -2   5   2   25.11    9.19
   2  -5  -2   13.67    8.35
   2  -5  -2   34.74   14.04
   2   5  -2   16.91   10.09
  -2  -5   2   11.77    8.34
  -2  -5   2   21.82    7.09
  -2  -5   2   15.80    8.38
  -2   5   3  257.65  100.62
  -2   5   3  370.09   80.71
  -2   5   3  280.15   80.89
  -2  -5   3  163.46  100.60
  -2  -5   3  318.28   80.48
  -2  -5   3  274.61   80.68
  -2   5   4    6.34    5.68
  -2   5   4    9.14    6.63
  -2   5   4   19.83    8.17
   2  -5  -4    7.87    6.30
   2   5  -4   13.27   11.40
   2   5  -4   12.71    6.13
  -2  -5   4   11.39    7.31
  -2  -5   4    9.16    8.50
  -2  -5   4    6.67    7.38
  -2   5   5  191.87   92.43
  -2   5   5  283.65   93.69
  -2   5   5  310.88   74.51
  -2   5   5  233.18   74.69
   2  -5  -5  273.90   74.09
   2   5  -5  246.52   93.86
   2   5  -5  278.90   73.94
  -2  -5   5  193.58   93.08
  -2  -5   5  254.09   74.10
  -2  -5   5  208.04   74.33
  -2   5   6   45.06   19.95
  -2   5   6   62.65   22.37
  -2   5   6   59.77   16.54
  -2   5   6   43.79   17.87
   2  -5  -6   51.39   16.26
   2   5  -6   40.96   21.47
   2   5  -6   51.35   15.97
  -2  -5   6   44.49   21.89
  -2  -5   6   41.29   16.62
  -2  -5   6   26.32   17.84
  -2   5   7   26.68   11.54
  -2   5   7   33.95   14.23
  -2   5   7   24.68   12.01
  -2   5   7   15.17   12.06
   2  -5  -7   19.80    9.73
   2   5  -7   21.87   13.11
   2   5  -7   16.02   11.57
  -2  -5   7   18.19   13.60
  -2  -5   7   16.61   12.46
  -2  -5   7   14.71   13.23
  -2   5   8   20.27   10.58
  -2   5   8   17.07   11.89
  -2   5   8   21.04   16.57
   2  -5  -8   18.36    9.45
   2   5  -8   20.59   11.51
   2   5  -8    2.83   10.26
  -2  -5   8   14.77   13.69
  -2  -5   8   22.68   13.71
  -2  -5   8   16.94   15.71
  -2   5   9  264.51   66.34
  -2   5   9  189.11   67.93
  -2   5   9  278.56   53.85
   2   5  -9   14.79   50.86
  -2  -5   9  155.64   66.79
  -2  -5   9  265.59   54.15
  -2  -5   9   53.25   52.46
  -2   5  10  131.50   56.98
  -2   5  10  169.38   47.61
   2   5 -10  161.13   59.66
  -2  -5  10  111.14   46.81
  -2   5  11 1136.80  438.40
  -2   5  11 1189.64  352.32
   2   5 -11 1214.49  440.02
  -2  -5  11 1202.73  353.67
  -2   5  12    4.29   17.91
  -2   5  12    4.62   27.20
   2   5 -12    3.84   23.07
  -2  -5  12   -4.37   31.91
  -2   5  13    4.00   27.58
   2   5 -13   -2.31   22.55
  -2  -5  13    4.35   23.80
  -2   5  14   -0.95   28.82
  -2   5  14    4.36   33.50
  -2  -5  14    1.63   26.63
  -2  -5  14  -11.92   53.07
  -2   6   1    3.01    6.65
  -2   6   1   20.28    6.72
  -2   6   1    7.55    8.51
   2  -6  -1    5.22    4.29
   2  -6  -1   14.54   10.50
   2   6  -1    2.74    7.27
   2   6  -1    1.82    9.95
  -2  -6   1    3.42    4.56
  -2  -6   1    2.65    4.67
  -2  -6   1    5.34    6.57
  -2   6   2   67.72   29.00
  -2   6   2  104.52   22.81
  -2   6   2   92.76   23.61
   2  -6  -2   49.76   28.37
   2  -6  -2  125.09   27.09
   2   6  -2   82.91   29.44
   2   6  -2  117.11   24.24
  -2  -6   2   49.37   28.38
  -2  -6   2   69.78   23.11
  -2   6   3    8.25    5.62
  -2   6   3    7.10    5.34
  -2   6   3    9.23    7.08
  -2   6   3    5.74    8.01
   2   6  -3    9.23    7.19
  -2  -6   3    3.71    4.74
  -2  -6   3    3.78    6.40
  -2  -6   3    7.16    8.40
  -2   6   4    8.48    4.74
  -2   6   4    7.81    5.82
  -2   6   4   11.13    7.86
  -2   6   4    6.06    7.79
   2  -6  -4    5.26    5.89
   2   6  -4    7.18    8.35
  -2  -6   4    6.36    6.65
  -2  -6   4    4.44    6.34
  -2  -6   4    6.51    6.64
  -2   6   5  399.36  190.34
  -2   6   5  649.26  191.57
  -2   6   5  654.29  152.98
  -2   6   5  590.58  153.45
   2  -6  -5  515.56  152.64
   2   6  -5  627.04  192.14
   2   6  -5  488.84  152.50
  -2  -6   5  366.33  190.79
  -2  -6   5  537.49  152.68
  -2  -6   5  442.42  152.81
  -2   6   6 1660.35  766.42
  -2   6   6 2802.47  767.89
  -2   6   6 2312.65  616.17
  -2   6   6 2376.70  616.73
   2  -6  -6 1864.62  615.97
   2   6  -6 1933.65  767.71
   2   6  -6 2241.21  616.02
  -2  -6   6 2029.93  616.09
  -2  -6   6 1833.01  616.28
  -2   6   7  190.86   72.62
  -2   6   7  253.07   74.59
  -2   6   7  275.64   58.63
  -2   6   7  187.92   59.00
   2  -6  -7  136.73   57.60
   2   6  -7  193.37   73.97
   2   6  -7  158.98   58.29
  -2  -6   7  206.59   74.09
  -2  -6   7  155.28   58.69
  -2  -6   7  194.72   59.27
  -2   6   8  113.66   34.73
  -2   6   8  128.85   37.70
  -2   6   8  111.21   28.78
  -2   6   8   91.44   30.00
   2  -6  -8   64.32   27.26
   2   6  -8  108.97   36.40
   2   6  -8   21.35   27.32
  -2  -6   8  108.36   29.15
  -2  -6   8   64.70   29.34
  -2   6   9    0.26   12.37
  -2   6   9    2.92   14.31
  -2   6   9   -0.34   14.43
   2   6  -9    1.30    8.81
   2   6  -9    0.17    7.69
  -2  -6   9   -1.15   11.22
  -2  -6   9    9.85   16.24
  -2  -6   9    4.83   15.13
  -2   6  10  324.36  120.55
  -2   6  10  292.58   96.93
   2   6 -10  323.21  122.66
  -2  -6  10  306.20   98.32
  -2   6  11  258.41   97.17
  -2   6  11  240.07   78.16
  -2  -6  11  237.01   83.80
  -2   6  12 1041.77  377.45
  -2   6  12 1012.14  303.36
   2   6 -12  948.49  379.15
  -2  -6  12 1008.86  305.50
  -2   6  13    5.62   46.70
  -2   6  13  193.93   45.45
   2   6 -13  162.45   50.73
  -2  -6  13  236.32   59.81
  -2   6  14   84.70   43.57
   2   6 -14   31.03   31.80
  -2  -6  14    4.12   30.24
  -2  -6  14   34.79   57.05
  -2   7   1 5186.27 2005.80
  -2   7   1 6851.10 1612.78
  -2   7   1 6135.60 1613.06
   2  -7  -1 3346.81 2004.93
   2   7  -1 6942.86 2005.51
   2   7  -1 6018.50 1612.77
  -2  -7   1 3841.33 2005.01
  -2  -7   1 7178.34 1612.62
  -2  -7   1 7208.69 1612.91
  -2   7   2  139.47   53.46
  -2   7   2  160.20   42.14
  -2   7   2  159.01   42.98
   2  -7  -2  247.65   45.41
   2   7  -2  115.14   53.65
  -2  -7   2   86.65   52.77
  -2  -7   2  174.96   41.96
  -2  -7   2  131.33   42.14
  -2   7   3   -1.21    4.78
  -2   7   3    5.54    7.25
  -2   7   3   -3.27    6.72
   2  -7  -3   -0.36    5.07
   2   7  -3    1.31    5.71
  -2  -7   3   -0.26    3.37
  -2  -7   3    1.88    7.73
  -2   7   4   14.43    9.49
  -2   7   4   19.58   10.33
  -2   7   4   27.46   10.16
  -2   7   4   27.21   11.22
   2  -7  -4   23.01    8.45
   2   7  -4   21.95   11.65
  -2  -7   4   13.70   10.98
  -2  -7   4   29.18    8.52
  -2   7   5  954.90  404.37
  -2   7   5 1241.40  405.53
  -2   7   5 1262.09  325.00
  -2   7   5 1186.09  325.40
   2  -7  -5  985.48  324.75
   2   7  -5 1202.22  405.96
   2   7  -5 1182.34  324.72
  -2  -7   5  979.71  404.87
  -2  -7   5 1042.25  324.77
  -2   7   6  134.19   61.82
  -2   7   6  240.51   63.74
  -2   7   6  186.33   49.66
  -2   7   6  186.37   50.91
   2  -7  -6  139.79   49.37
   2   7  -6  202.01   64.51
   2   7  -6  169.08   49.69
  -2  -7   6  139.23   62.78
  -2  -7   6  128.09   49.96
  -2   7   7  990.13  420.75
  -2   7   7 1517.24  422.58
  -2   7   7 1504.66  338.24
  -2   7   7 1259.24  338.65
   2  -7  -7  907.64  337.65
   2   7  -7 1160.74  337.82
  -2  -7   7 1122.75  421.57
  -2  -7   7  938.61  337.89
  -2  -7   7  962.85  338.17
  -2   7   8  204.31   55.15
  -2   7   8  196.96   43.16
  -2   7   8  139.08   43.27
   2  -7  -8   94.52   41.51
   2   7  -8  162.28   54.02
   2   7  -8   67.59   41.72
  -2  -7   8  127.39   54.05
  -2  -7   8  188.81   43.16
  -2   7   9   40.96   17.52
  -2   7   9   18.89   18.18
  -2   7   9   27.44   15.69
   2   7  -9   26.19   17.52
   2   7  -9   -0.04    9.66
  -2  -7   9   12.91   18.94
  -2  -7   9   27.08   21.38
  -2  -7   9    4.75   15.33
  -2   7  10   34.23   22.52
  -2   7  10   36.19   21.33
   2   7 -10   37.39   27.95
  -2  -7  10   23.53   23.12
  -2   7  11 1220.36  448.59
  -2   7  11 1207.20  360.30
   2   7 -11 1161.77  450.35
  -2   7  12  352.99  141.25
  -2   7  12  457.43  116.04
   2   7 -12  317.24  143.61
  -2  -7  12  418.27  122.73
  -2   7  13    4.79   20.53
  -2   7  13    8.52   28.14
   2   7 -13    2.52   23.99
  -2  -7  13    9.87   46.03
  -2   7  14   88.40   41.40
   2   7 -14   58.11   45.10
  -2   8   1  115.47   58.93
  -2   8   1  160.63   46.39
  -2   8   1  414.41   48.71
   2  -8  -1   77.27   57.97
   2   8  -1  146.57   58.80
   2   8  -1  154.47   46.82
  -2  -8   1   92.54   58.12
  -2  -8   1  160.50   46.02
  -2   8   2 1589.27  485.75
  -2   8   2 1657.87  389.88
  -2   8   2 1398.57  390.16
   2  -8  -2  810.19  485.13
   2  -8  -2 1955.39  390.84
   2   8  -2 1260.34  485.86
  -2  -8   2  936.82  485.13
  -2  -8   2 1703.29  389.65
  -2  -8   2 1382.02  389.77
  -2   8   3   53.21   20.71
  -2   8   3   71.07   17.54
  -2   8   3   57.80   17.47
   2  -8  -3   39.14   20.11
   2   8  -3   63.10   22.17
  -2  -8   3   33.71   20.35
  -2  -8   3   40.48   16.21
  -2   8   4    7.30    5.11
  -2   8   4    2.91    5.63
  -2   8   4    7.03    8.08
  -2   8   4    7.24    8.04
   2  -8  -4    5.56    5.66
   2   8  -4    6.33    7.00
  -2  -8   4    5.49    6.51
  -2  -8   4    5.80    6.47
  -2  -8   4   -0.68   10.64
  -2   8   5  671.92  314.63
  -2   8   5 1077.38  315.84
  -2   8   5  979.63  252.82
  -2   8   5  930.34  253.21
   2  -8  -5  796.91  252.58
   2   8  -5  896.29  316.23
   2   8  -5 1010.55  252.52
  -2  -8   5  682.62  315.04
  -2  -8   5  807.09  252.54
  -2  -8   5  842.89  252.78
  -2   8   6 2460.18 1003.81
  -2   8   6 3454.55 1005.16
  -2   8   6 3034.25  807.13
  -2   8   6 3068.39  807.69
   2  -8  -6 2262.75  806.88
   2   8  -6 3624.69 1005.65
   2   8  -6 2791.60  806.90
  -2  -8   6 2212.27 1004.39
  -2  -8   6 2267.65  806.98
  -2   8   7  540.30  135.90
  -2   8   7  472.21  107.92
  -2   8   7  372.33  108.10
   2  -8  -7  295.33  107.13
   2   8  -7  348.62  135.56
   2   8  -7  333.44  107.30
  -2  -8   7  289.96  134.73
  -2  -8   7  315.65  107.52
  -2  -8   7  281.59  107.67
  -2   8   8   57.40   21.07
  -2   8   8   67.98   24.13
  -2   8   8   60.88   19.32
  -2   8   8   38.50   19.21
   2  -8  -8   16.60   16.16
   2   8  -8   56.58   21.93
   2   8  -8   26.37   18.17
  -2  -8   8   41.65   23.82
  -2  -8   8   55.44   21.57
  -2  -8   8   38.62   20.49
  -2   8   9    4.27   13.63
  -2   8   9    0.37   14.64
   2   8  -9   12.53   21.72
   2   8  -9   -0.59   10.32
  -2  -8   9   11.55   18.71
  -2  -8   9    3.36   17.28
  -2   8  10   18.45   18.44
  -2   8  10   16.35   19.79
   2   8 -10   12.79   21.40
  -2  -8  10    5.20   22.24
  -2   8  11  173.92   71.47
  -2   8  11  183.52   59.38
   2   8 -11  183.19   75.81
  -2  -8  11  185.53   67.65
  -2   8  12  398.41  144.61
  -2   8  12  349.16  116.37
   2   8 -12  327.16  146.75
  -2  -8  12  436.27  126.02
  -2   8  13    0.90   26.98
  -2   8  13   83.60   37.29
   2   8 -13   24.92   31.42
  -2  -8  13   37.99   60.49
  -2   8  14   27.75   35.80
  -2   9   1 1232.70  475.09
  -2   9   1 1755.32  381.18
  -2   9   1 1844.97  381.75
   2  -9  -1  796.70  474.20
   2  -9  -1 1530.12  381.71
   2   9  -1 1672.17  474.86
  -2  -9   1  897.17  474.24
  -2  -9   1 1620.22  381.13
  -2   9   2 1350.88  463.02
  -2   9   2 1434.63  371.56
  -2   9   2 1393.83  371.93
   2  -9  -2  774.26  462.39
   2  -9  -2 1683.74  372.44
   2   9  -2 1140.21  463.14
  -2  -9   2 1458.54  371.30
  -2  -9   2 1403.77  371.50
  -2   9   3    1.45    6.80
  -2   9   3   20.85    9.56
  -2   9   3    2.18    8.08
   2  -9  -3   -0.56    5.51
   2   9  -3    1.34    9.02
  -2  -9   3    0.13    5.88
  -2  -9   3    1.61    5.32
  -2  -9   3    0.28    8.05
  -2   9   4  671.95  289.73
  -2   9   4 1054.09  232.76
  -2   9   4  914.53  233.13
   2  -9  -4  853.28  290.13
   2  -9  -4  807.03  232.49
  -2  -9   4  551.22  289.79
  -2  -9   4  748.58  232.58
  -2   9   5  486.62  212.48
  -2   9   5  728.56  213.70
  -2   9   5  758.22  170.95
  -2   9   5  595.83  170.99
   2   9  -5  591.43  214.10
  -2  -9   5  439.32  212.84
  -2  -9   5  491.36  170.38
  -2   9   6  499.90  187.09
  -2   9   6  673.21  188.47
  -2   9   6  544.40  150.10
  -2   9   6  535.81  150.68
   2  -9  -6  401.69  149.79
   2   9  -6  624.34  189.26
   2   9  -6  496.09  149.78
  -2  -9   6  422.26  187.60
  -2  -9   6  524.88  150.39
  -2  -9   6  379.49  150.00
  -2   9   7  374.39  131.65
  -2   9   7  469.54  133.53
  -2   9   7  471.71  106.06
  -2   9   7  335.41  106.00
   2  -9  -7  238.64  104.96
   2   9  -7  483.65  134.22
   2   9  -7  302.32  105.34
  -2  -9   7  268.64  132.20
  -2  -9   7  406.02  106.45
  -2  -9   7  254.35  105.59
  -2   9   8   11.07   10.68
  -2   9   8   15.25   14.47
  -2   9   8   13.63   14.02
   2   9  -8    8.32   13.53
   2   9  -8    0.75   12.43
  -2  -9   8    7.59   13.85
  -2  -9   8    9.89   17.62
  -2  -9   8   11.56   15.08
  -2   9   9   54.41   25.52
  -2   9   9   66.39   23.29
   2   9  -9   54.22   30.85
  -2  -9   9   48.06   25.46
  -2   9  10  697.63  279.70
  -2   9  10  873.80  225.44
   2   9 -10  744.88  282.06
  -2  -9  10  720.91  226.25
  -2   9  11  652.13  209.67
   2   9 -11  671.80  263.10
  -2  -9  11  807.31  214.04
  -2   9  12   16.01   23.21
   2   9 -12    9.55   26.70
  -2  -9  12    5.71   40.58
  -2   9  13    0.79   20.40
  -2   9  13  -13.74   35.61
   2   9 -13   -2.53   28.57
  -2  -9  13   15.99   63.41
  -2   9  14   79.21   44.09
  -2  10   1   49.58   24.27
  -2  10   1   71.17   18.30
  -2  10   1   80.97   20.28
   2 -10  -1   37.63   23.18
   2 -10  -1   73.12   21.59
   2  10  -1   72.04   24.48
   2  10  -1   68.81   18.87
  -2 -10   1   39.79   23.24
  -2 -10   1   65.23   17.65
  -2 -10   1   90.70   19.93
  -2  10   2   76.24   29.69
  -2  10   2  146.78   23.78
  -2  10   2   75.59   23.41
   2 -10  -2   44.96   28.57
   2 -10  -2  111.74   25.94
   2  10  -2   57.38   29.43
  -2 -10   2   40.80   28.59
  -2 -10   2   78.47   22.07
  -2 -10   2   56.97   22.74
  -2  10   3   69.88   24.89
  -2  10   3   85.25   20.41
  -2  10   3   67.34   20.01
   2 -10  -3   51.50   24.36
   2  10  -3   71.19   26.15
  -2 -10   3   32.82   24.15
  -2 -10   3   60.92   18.59
  -2  10   4  278.11  100.91
  -2  10   4  356.58   80.82
  -2  10   4  308.60   81.22
   2 -10  -4  293.31  101.46
   2 -10  -4  209.99   80.37
   2  10  -4  319.54  102.47
  -2 -10   4  184.70  100.87
  -2 -10   4  270.48   80.43
  -2 -10   4  262.44   80.50
  -2  10   5 1093.08  431.35
  -2  10   5 1527.08  432.63
  -2  10   5 1439.63  346.65
   2 -10  -5 1166.68  346.37
   2  10  -5 1150.92  432.84
  -2 -10   5  856.64  431.62
  -2 -10   5 1101.45  346.36
  -2 -10   5 1065.30  346.41
  -2  10   6    4.81    5.32
  -2  10   6    2.62    9.29
  -2  10   6    2.78    7.94
   2 -10  -6    0.52    6.59
   2  10  -6    2.77   12.25
   2  10  -6    1.75    7.28
  -2 -10   6   -1.73    9.37
  -2 -10   6   10.09   12.93
  -2 -10   6    1.19    8.51
  -2  10   7  124.24   45.02
  -2  10   7  152.98   46.84
  -2  10   7  163.24   36.93
  -2  10   7  122.46   37.21
   2 -10  -7   68.32   35.21
  -2 -10   7   86.09   45.77
  -2 -10   7  129.37   37.86
  -2  10   8  174.51   47.77
  -2  10   8  150.42   49.25
  -2  10   8  168.38   39.06
   2  10  -8  127.86   48.80
   2  10  -8   63.93   38.24
  -2 -10   8   73.48   47.72
  -2 -10   8   60.94   38.32
  -2  10   9   11.10   12.12
  -2  10   9    0.71   15.56
   2  10  -9    0.67   24.31
  -2 -10   9    3.86   24.70
  -2  10  10  722.64  291.64
  -2  10  10  845.38  234.90
   2  10 -10  893.96  294.97
  -2 -10  10  665.66  236.05
  -2  10  11  506.24  180.77
  -2  10  11  395.19  145.08
  -2 -10  11  493.74  151.71
  -2  10  12   -2.40   19.84
  -2  10  12   50.19   25.59
   2  10 -12   36.92   29.55
  -2 -10  12   28.29   54.07
  -2  10  13    3.53   26.00
  -2  10  13   23.84   30.63
  -2 -10  13   -2.35   67.75
  -2  10  14   79.24   51.23
  -2  11   1  604.85  248.08
  -2  11   1  862.60  198.46
  -2  11   1  711.96  198.92
   2 -11  -1  446.23  247.20
   2 -11  -1 1054.81  199.75
   2  11  -1  873.59  248.02
  -2 -11   1  514.69  247.34
  -2  11   2   11.16    9.22
  -2  11   2    8.65    6.99
  -2  11   2    9.02    8.59
   2 -11  -2   18.02   14.82
   2  11  -2    9.15    9.00
  -2 -11   2    5.29    7.76
  -2  11   3    4.99    8.92
  -2  11   3   33.23   10.62
  -2  11   3    4.68    8.27
   2  11  -3    7.36   11.11
  -2 -11   3    4.38    8.16
  -2  11   4  116.25   43.58
  -2  11   4  155.68   34.91
  -2  11   4  105.74   34.96
   2 -11  -4  108.95   44.30
   2  11  -4  114.30   44.94
  -2 -11   4   79.00   43.67
  -2  11   5   16.73    8.99
  -2  11   5   32.18   16.25
  -2  11   5   23.51   12.09
  -2  11   5   14.30   11.51
   2 -11  -5    6.78    7.51
   2  11  -5   14.70   12.23
  -2 -11   5   11.34   13.13
  -2 -11   5   14.99   13.05
  -2  11   6   14.57    8.46
  -2  11   6   23.80   12.58
  -2  11   6   14.10    9.34
  -2  11   6   17.56   13.08
   2 -11  -6    9.34    7.81
   2  11  -6   16.53   14.66
   2  11  -6    6.42    7.87
  -2 -11   6   13.95   11.79
  -2 -11   6   20.29   13.39
  -2  11   7  111.91   38.51
  -2  11   7  145.89   40.81
  -2  11   7  144.73   32.08
  -2  11   7   97.20   33.06
   2 -11  -7   54.92   30.10
   2  11  -7  167.24   45.08
   2  11  -7   72.39   30.90
  -2 -11   7   79.84   40.24
  -2 -11   7   74.84   32.09
  -2 -11   7   57.96   31.40
  -2  11   8   19.84   14.74
  -2  11   8   18.94   16.43
  -2  11   8   17.94   13.21
   2  11  -8   10.72   13.94
   2  11  -8    5.92   13.33
  -2 -11   8    8.79   18.26
  -2  11   9  349.31  139.19
  -2  11   9  352.92  111.73
   2  11  -9  399.56  142.96
  -2 -11   9  409.32  115.27
  -2  11  10  143.84   62.42
  -2  11  10  180.90   52.08
   2  11 -10  183.36   70.27
  -2 -11  10  101.16   55.40
  -2  11  11    9.43   17.99
  -2  11  11   20.25   24.38
   2  11 -11   22.13   33.49
  -2 -11  11    7.63   32.41
  -2  11  12    5.00   27.64
  -2  11  12   89.17   28.74
   2  11 -12   66.30   34.15
  -2 -11  12   43.88   67.17
  -2  11  13    1.52   22.50
  -2  11  13    3.40   30.88
   2  11 -13    4.23   37.61
  -2  11  14   62.41   49.93
  -2  12   1   10.68   12.69
  -2  12   1   54.47    9.73
  -2  12   1   62.10   14.88
   2 -12  -1    5.69   10.98
   2 -12  -1   31.03   15.16
   2  12  -1   19.77   13.64
  -2 -12   1    8.70   11.07
  -2  12   2   35.79   16.22
  -2  12   2   44.90   11.37
  -2  12   2   30.73   13.20
   2 -12  -2   25.30   14.75
   2 -12  -2   46.66   16.29
   2  12  -2   20.77   15.14
  -2 -12   2   20.43   13.74
  -2  12   3  432.34   91.65
  -2  12   3  345.28   91.93
   2 -12  -3  290.06  114.43
   2  12  -3  302.37  115.40
  -2 -12   3  200.44  114.18
  -2  12   4   84.27   35.11
  -2  12   4  118.24   28.25
  -2  12   4   86.55   28.56
   2 -12  -4   96.81   35.96
   2  12  -4   81.41   36.21
  -2 -12   4   62.87   35.09
  -2  12   5   10.93   10.66
  -2  12   5   15.12   17.56
  -2  12   5   70.47   16.04
  -2  12   5    7.54   12.17
   2 -12  -5   16.21   16.11
   2 -12  -5    5.02    8.40
   2  12  -5    7.48   13.41
  -2  12   6  910.49  312.11
  -2  12   6 1086.36  313.69
  -2  12   6 1189.32  250.76
  -2  12   6  601.82  250.58
   2 -12  -6  565.36  250.04
   2  12  -6 1092.10  314.23
  -2 -12   6  636.52  312.37
  -2 -12   6  972.20  250.63
  -2 -12   6  658.49  250.26
  -2  12   7   26.16   12.95
  -2  12   7   14.66   13.52
  -2  12   7   24.51   14.96
   2  12  -7   24.60   21.82
   2  12  -7    4.30    9.37
  -2 -12   7    9.79   15.40
  -2  12   8  216.67   62.22
  -2  12   8  187.73   49.60
   2  12  -8  223.64   67.22
   2  12  -8   61.04   48.54
  -2  12   9    5.52   13.38
  -2  12   9    4.23   16.02
   2  12  -9    4.18   28.15
  -2 -12   9   -0.16   25.18
  -2  12  10   17.35   19.60
  -2  12  10   12.65   21.28
   2  12 -10   12.62   29.89
  -2 -12  10   -1.95   30.70
  -2  12  11   20.59   22.85
  -2  12  11   12.48   25.85
   2  12 -11   21.96   34.06
  -2 -12  11   17.13   46.65
  -2  12  12  457.85  127.18
   2  12 -12  401.69  161.46
  -2 -12  12  343.72  140.80
  -2  12  13    0.91   30.23
  -2  12  13   27.41   38.63
   2  12 -13   20.91   33.54
  -2  13   1  748.11  289.35
  -2  13   1 1055.60  231.61
  -2  13   1 1059.74  232.51
   2 -13  -1  633.60  288.55
   2 -13  -1 1093.29  232.74
  -2 -13   1  544.77  288.54
  -2  13   2  264.69   92.50
  -2  13   2  360.86   73.41
  -2  13   2  255.44   73.77
   2  13  -2  197.68   92.28
  -2 -13   2  152.91   91.46
  -2  13   3  195.53   61.21
  -2  13   3  219.12   48.32
  -2  13   3  179.83   49.04
   2 -13  -3  134.88   60.64
   2  13  -3  152.01   61.68
  -2 -13   3   98.03   60.34
  -2  13   4   60.37   23.56
  -2  13   4   74.46   19.33
   2 -13  -4   46.52   23.94
   2  13  -4   54.40   25.41
  -2 -13   4   38.52   23.09
  -2  13   5  230.85   81.08
  -2  13   5  306.15   65.46
  -2  13   5  194.78   65.12
   2 -13  -5  274.11   82.34
   2 -13  -5  128.22   64.11
   2  13  -5  216.07   82.82
  -2 -13   5  159.90   81.22
  -2  13   6   89.38   26.54
  -2  13   6   79.75   29.58
  -2  13   6   99.26   22.36
  -2  13   6   38.25   21.76
   2 -13  -6   29.43   20.57
   2  13  -6   62.38   29.40
  -2 -13   6   44.74   28.05
  -2  13   7  125.75   33.90
  -2  13   7   93.27   35.20
  -2  13   7  126.13   27.92
   2  13  -7  111.37   37.11
   2  13  -7   28.48   25.12
  -2 -13   7   44.53   34.03
  -2 -13   7   54.87   28.73
  -2 -13   7   81.28   28.99
  -2  13   8  201.27   48.19
  -2  13   8  186.94   39.83
   2  13  -8  161.73   52.63
   2  13  -8   20.92   36.53
  -2 -13   8   89.08   41.42
  -2 -13   8   42.47   37.31
  -2  13   9  129.63   52.07
  -2  13   9  145.50   44.83
   2  13  -9  131.07   61.16
  -2 -13   9   84.30   48.59
  -2  13  10    6.12   16.12
  -2  13  10    9.16   21.42
   2  13 -10    2.66   29.71
  -2 -13  10   -6.63   48.26
  -2  13  11  915.46  469.63
  -2  13  11 1554.61  378.55
   2  13 -11 1742.83  474.01
  -2 -13  11 1203.18  383.51
  -2  13  12    7.74   34.15
  -2  13  12  141.23   36.01
   2  13 -12  123.03   44.21
  -2 -13  12   77.11   80.13
  -2  13  13   12.76   47.20
   2  13 -13  -11.56   41.68
  -2  14   1   75.02   49.63
  -2  14   1  191.37   38.90
  -2  14   1  365.43   42.72
   2 -14  -1   69.79   49.22
   2 -14  -1  357.93   42.79
   2  14  -1  109.31   50.24
  -2 -14   1   50.28   48.58
  -2  14   2  147.15   55.18
  -2  14   2  211.45   43.62
  -2  14   2  154.20   44.10
   2  14  -2  107.13   54.99
  -2 -14   2   97.38   54.50
  -2  14   3   -2.77   10.64
  -2  14   3    0.39    9.46
  -2  14   3   -0.14   10.16
   2 -14  -3    0.01    9.76
   2  14  -3    2.28    9.20
  -2 -14   3    3.25    8.43
  -2  14   4   35.30   17.94
  -2  14   4   53.98   15.44
  -2  14   4   32.53   13.97
   2 -14  -4   37.50   18.28
   2  14  -4   41.24   20.64
  -2 -14   4   18.23   17.43
  -2  14   5   -4.52    9.99
  -2  14   5   -2.05   11.19
   2 -14  -5   -1.27    6.02
   2  14  -5   -6.14   11.75
  -2 -14   5   -2.20    9.37
  -2  14   6 1373.25  476.16
  -2  14   6 2008.82  478.08
  -2  14   6 1194.89  382.12
   2  14  -6 1385.02  478.01
  -2 -14   6  756.49  476.02
  -2  14   7 1043.15  386.71
  -2  14   7 1070.67  310.37
   2  14  -7  972.48  388.57
  -2  14   8   31.03   18.51
  -2  14   8   39.87   16.82
   2  14  -8   39.45   27.56
  -2 -14   8   25.54   31.37
  -2 -14   8    6.44   18.67
  -2  14   9   76.85   34.47
  -2  14   9   86.99   31.37
   2  14  -9   80.75   44.29
  -2  14  10  178.14   73.61
  -2  14  10  202.98   63.85
   2  14 -10  232.34   84.06
  -2 -14  10  103.94   78.27
  -2  14  11   -0.42   18.45
  -2  14  11   35.56   23.59
   2  14 -11   47.20   43.48
  -2 -14  11   17.87   52.71
  -2  14  12   -1.26  103.74
  -2  14  12  765.87   94.35
   2  14 -12  462.15  115.55
  -2  14  13  783.00  240.86
  -2  15   1 2165.92  872.31
  -2  15   1 2968.84  700.56
  -2  15   1 3014.53  701.40
   2 -15  -1 1673.89  871.50
   2  15  -1 3196.20  872.43
  -2 -15   1 1804.91  871.57
  -2  15   2  619.37  241.87
  -2  15   2  893.35  193.43
  -2  15   2  709.77  194.07
   2  15  -2  559.93  241.91
  -2 -15   2  490.22  241.14
  -2  15   3   92.49   29.48
  -2  15   3   87.67   23.18
  -2  15   3   75.03   23.25
   2  15  -3   67.90   29.67
  -2 -15   3   34.97   28.56
  -2  15   4   90.79   28.07
  -2  15   4   83.20   22.38
  -2  15   4   70.96   24.55
   2 -15  -4   57.65   27.82
   2  15  -4   68.00   29.17
  -2 -15   4   26.61   26.65
  -2  15   5  739.57  209.36
  -2  15   5  641.81  167.42
  -2  15   5  572.14  168.44
   2 -15  -5  531.46  209.60
   2  15  -5  568.40  210.82
  -2 -15   5  327.42  208.83
  -2  15   6  136.96   40.61
  -2  15   6   72.76   43.23
  -2  15   6   77.67   31.70
   2  15  -6   67.95   41.16
  -2  15   7  950.73  353.56
  -2  15   7 1014.12  283.72
   2  15  -7  844.16  355.45
  -2  15   8  519.68  213.25
  -2  15   8  550.07  171.19
   2  15  -8  699.09  217.47
  -2  15   9   35.17   18.90
  -2  15   9   28.46   25.74
   2  15  -9   24.60   34.90
  -2 -15   9   19.99   41.39
  -2  15  10  309.02  122.45
  -2  15  10  302.74   99.63
   2  15 -10  357.40  128.40
  -2  15  11   10.09   63.80
  -2  15  11  338.93   59.70
   2  15 -11  352.05   81.14
  -2 -15  11  107.07   89.80
  -2  15  12    1.93   79.51
  -2  15  12  557.90   74.98
   2  15 -12  363.19   94.51
  -2  15  13   -5.83   42.36
  -2  16   1  107.60   83.24
  -2  16   1  428.15   66.20
  -2  16   1  608.32   69.78
   2 -16  -1   64.86   82.45
   2 -16  -1  601.51   69.90
   2  16  -1  148.43   83.60
  -2 -16   1   82.65   82.74
  -2  16   2  629.62  258.81
  -2  16   2 1162.08  207.33
  -2  16   2 1011.66  208.89
   2 -16  -2  422.40  258.02
   2  16  -2  721.36  259.12
  -2 -16   2  500.35  258.10
  -2  16   3  436.26   97.16
  -2  16   3  325.35   98.36
   2 -16  -3  288.68  121.56
   2  16  -3  339.94  122.78
  -2 -16   3  252.19  121.57
  -2  16   4   97.94   39.49
  -2  16   4  222.67   34.35
  -2  16   4   69.53   31.82
   2 -16  -4   56.12   39.51
   2  16  -4  111.67   41.71
  -2 -16   4   31.74   38.27
  -2  16   5 2021.12  528.79
  -2  16   5 1747.58  424.31
   2 -16  -5 1148.82  528.57
   2  16  -5 1472.42  530.15
  -2 -16   5  799.71  528.04
  -2  16   6  636.89  217.22
  -2  16   6  597.03  173.78
   2  16  -6  409.46  218.41
  -2  16   7  573.89  182.92
  -2  16   7  388.02  145.84
   2  16  -7  411.18  184.76
  -2  16   8  294.35  101.83
  -2  16   8  207.25   81.35
   2  16  -8  268.56  108.17
  -2  16   9   78.72   34.35
  -2  16   9   67.82   31.94
   2  16  -9   93.96   54.12
  -2  16  10   80.28   36.55
  -2  16  10   82.75   38.82
   2  16 -10   90.65   49.16
  -2  16  11    5.09   52.15
  -2  16  11  220.22   49.01
   2  16 -11  314.02   69.33
  -2  16  12   -0.18   21.57
  -2  16  12   21.36   36.20
   2  16 -12   19.66   42.38
  -2  17   1   12.86   22.19
  -2  17   1  101.00   21.52
   2 -17  -1    9.44   20.82
   2  17  -1   16.95   23.20
  -2 -17   1   11.36   21.59
  -2  17   2  693.92  277.68
  -2  17   2 1160.72  222.39
  -2  17   2 1012.49  223.65
   2 -17  -2  430.93  276.98
   2  17  -2  860.06  278.13
  -2 -17   2  564.14  277.01
  -2  17   3    3.75   14.73
  -2  17   3   30.13   12.01
  -2  17   3   -3.42   21.20
   2  17  -3    2.58   11.95
  -2 -17   3    2.23   12.07
  -2  17   4  774.56  221.88
  -2  17   4  889.43  177.72
   2 -17  -4  396.92  221.26
   2  17  -4  803.36  223.18
  -2 -17   4  302.66  220.98
  -2  17   5  358.57  115.61
  -2  17   5  231.12   91.31
   2  17  -5  305.75  116.83
  -2  17   6  390.16  129.69
  -2  17   6  311.92  102.91
   2  17  -6  271.83  130.79
  -2  17   7    4.88   12.79
  -2  17   7    2.52   12.27
   2  17  -7   -5.20   19.60
  -2  17   8   48.85   22.91
  -2  17   8   41.34   20.54
   2  17  -8   33.17   39.75
  -2  17   9  328.71  144.44
  -2  17   9  447.88  117.30
   2  17  -9  418.61  152.95
  -2  17  10   -1.61  100.55
  -2  17  10  482.73   85.57
   2  17 -10  621.29  112.44
  -2  17  11    2.02   21.24
  -2  17  11   47.52   32.12
   2  17 -11   36.75   41.08
  -2  17  12   10.26   38.69
   2  17 -12   -0.37   43.81
  -2  18   1    2.33   22.60
  -2  18   1   45.19   24.09
   2 -18  -1    3.92   22.07
   2  18  -1    1.44   23.44
  -2 -18   1    2.23   22.70
  -2  18   2   53.25   30.95
  -2  18   2  127.47   24.83
  -2  18   2   69.00   28.30
   2  18  -2   74.77   31.25
  -2 -18   2   31.71   30.37
  -2  18   3   14.94   16.84
  -2  18   3   26.45   13.96
   2 -18  -3    9.85   13.33
   2  18  -3    5.87   13.80
  -2  18   4  388.54  141.98
  -2  18   4  358.11  113.09
   2  18  -4  378.04  143.03
  -2  18   5  235.01   83.13
  -2  18   5  202.89   65.32
   2  18  -5  189.89   84.12
  -2  18   6  439.26  153.62
  -2  18   6  373.64  122.12
   2  18  -6  384.23  155.72
  -2  18   7   48.62   22.65
  -2  18   7   35.19   18.87
   2  18  -7   30.27   25.55
  -2  18   8   70.59   28.64
  -2  18   8   50.53   25.17
   2  18  -8   58.49   38.57
  -2  18   9   27.96   19.79
  -2  18   9   31.39   29.11
   2  18  -9   11.02   47.72
  -2  18  10    0.50  102.11
  -2  18  10  448.96   86.41
   2  18 -10  657.75  115.35
  -2  18  11   -0.84   27.57
  -2  18  11   81.65   33.33
   2  18 -11  133.22   50.45
  -2  18  12   19.62   41.32
  -2  19   1  655.98  290.11
  -2  19   1  932.44  231.78
   2  19  -1  647.17  289.87
  -2  19   2   94.96   53.73
  -2  19   2  168.22   42.21
   2  19  -2  125.25   54.12
  -2  19   3   22.17   16.72
  -2  19   3   22.99   13.36
   2  19  -3    6.37   17.19
  -2  19   4  244.47   93.93
   2  19  -4  232.77   93.87
  -2  19   5    4.43   15.62
  -2  19   5    5.43   14.60
   2  19  -5   10.10   20.25
  -2  19   6   27.23   19.27
  -2  19   6   18.30   15.37
   2  19  -6   20.86   20.98
  -2  19   7  283.97  107.53
  -2  19   7  244.26   86.16
   2  19  -7  314.79  111.81
  -2  19   8    3.07   19.95
  -2  19   8    8.04   18.48
   2  19  -8    3.39   28.19
  -2  19   9   -2.72   36.81
  -2  19   9  169.08   38.39
   2  19  -9  196.50   57.25
  -2  19  10   -2.69   15.64
  -2  19  10   -1.66   28.51
   2  19 -10    0.85   38.93
  -2  19  11    0.76   24.79
  -2  19  11   79.94   33.87
   2  19 -11   91.86   58.48
  -2  20   1  113.85   67.99
  -2  20   1  243.03   54.06
   2  20  -1  117.34   67.79
  -2  20   2   16.74   39.52
  -2  20   2  203.72   33.72
   2  20  -2   14.83   40.16
  -2  20   3  273.94  109.02
  -2  20   3  321.06   86.08
   2  20  -3  234.40  109.10
  -2  20   4   13.15   11.94
   2  20  -4   16.03   21.33
  -2  20   5  519.18  188.79
  -2  20   5  487.82  150.30
   2  20  -5  478.70  190.79
  -2  20   6  788.14  255.20
  -2  20   6  595.75  203.46
   2  20  -6  583.50  256.56
  -2  20   7  158.15   60.46
  -2  20   7  124.27   48.25
   2  20  -7  143.47   65.32
  -2  20   8  115.82   48.70
  -2  20   8  111.59   40.33
   2  20  -8   90.08   57.83
  -2  20   9    2.53   21.30
  -2  20   9   44.41   42.18
   2  20  -9   15.00   43.16
  -2  20  10    1.34   27.47
  -2  20  10   93.98   43.72
   2  20 -10   60.86   56.19
  -2  20  11   23.04   43.20
  -2  21   1  158.33   95.28
  -2  21   1  342.52   75.88
   2  21  -1  174.74   95.50
  -2  21   2  515.68  272.50
  -2  21   2  933.00  218.08
   2  21  -2  627.17  272.97
  -2  21   3   66.41   37.56
  -2  21   3   93.32   27.57
   2  21  -3   63.73   35.20
  -2  21   4   74.80   37.52
  -2  21   4   76.77   30.22
   2  21  -4   82.07   41.28
  -2  21   5  183.24   71.92
  -2  21   5  167.67   56.10
   2  21  -5  169.68   73.84
  -2  21   6   85.05   40.85
  -2  21   6   73.93   30.08
   2  21  -6   82.92   41.95
  -2  21   7   34.86   29.40
  -2  21   7   37.65   25.08
   2  21  -7   40.76   40.65
  -2  21   8    3.99   92.01
  -2  21   8  456.07   80.16
   2  21  -8  446.89  100.32
  -2  21   9    0.69   32.30
  -2  21   9  104.70   46.80
   2  21  -9   91.76   59.80
  -2  21  10    2.34   27.10
  -2  21  10    5.50   44.50
   2  21 -10  105.99   51.29
  -2  22   1   41.59   73.56
  -2  22   1  356.26   59.31
   2  22  -1   51.99   73.95
  -2  22   2  194.90   88.19
  -2  22   2  277.94   69.39
   2  22  -2  161.39   86.86
  -2  22   3   53.45   31.34
   2  22  -3   61.01   30.97
  -2  22   4   68.91   33.67
  -2  22   4   48.50   27.08
   2  22  -4   66.15   34.72
  -2  22   5  132.26   55.56
  -2  22   5  126.60   43.88
   2  22  -5  119.25   57.06
  -2  22   6  405.78  148.65
  -2  22   6  284.17  117.63
   2  22  -6  485.57  153.01
  -2  22   7 2046.92  635.36
  -2  22   7 1266.07  508.85
   2  22  -7 1582.73  637.06
  -2  22   8    2.46   24.00
  -2  22   8   10.60   41.61
   2  22  -8   43.60   35.08
  -2  22   9   -6.53   31.83
  -2  22   9  -16.90   44.10
   2  22  -9  153.20   53.05
  -2  22  10    6.12   53.19
   2  22 -10   68.71   64.95
  -2  23   1  510.81  204.53
  -2  23   1  640.03  162.30
   2  23  -1  397.26  203.71
  -2  23   2  716.57  314.39
  -2  23   2 1062.12  251.19
   2  23  -2  614.32  313.94
  -2  23   3  108.47   66.69
  -2  23   3  205.36   54.10
   2  23  -3  169.88   69.72
  -2  23   4  318.34  127.39
  -2  23   4  338.73  101.06
   2  23  -4  319.05  127.97
  -2  23   5  254.69   94.76
  -2  23   5  210.49   75.06
   2  23  -5  245.62   96.29
  -2  23   6    7.55   28.55
   2  23  -6    7.45   39.00
  -2  23   7    7.24   41.07
  -2  23   7   -1.54   40.70
   2  23  -7  277.52   51.56
  -2  23   8    5.40   54.55
  -2  23   8    7.72   58.04
   2  23  -8  457.98   73.47
  -2  23   9    4.42   26.82
  -2  23   9   -3.64   36.04
   2  23  -9    0.05   48.94
  -2  24   1   72.88   43.91
  -2  24   1  117.74   34.22
   2  24  -1   56.17   41.78
  -2  24   2  223.27  145.60
  -2  24   2  582.06  117.56
   2  24  -2  217.79  145.33
  -2  24   3  596.35  259.95
  -2  24   3  725.39  208.13
   2  24  -3  737.38  260.94
  -2  24   4  141.31   62.16
   2  24  -4  148.39   66.01
  -2  24   5  860.66  239.42
  -2  24   5    2.31  187.63
   2  24  -5 1168.26  243.22
  -2  24   6    9.48   26.95
  -2  24   6    6.80   20.02
   2  24  -6   -3.42   35.11
  -2  24   7    7.67   27.97
  -2  24   7    3.04   35.57
   2  24  -7   44.59   38.48
  -2  24   8    2.19   30.62
  -2  24   8   14.54   41.92
   2  24  -8   72.38   48.21
  -2  25   1  441.22  172.54
  -2  25   1  516.07  136.65
   2  25  -1  336.22  171.01
  -2  25   2  158.34   65.29
   2  25  -2  149.31   64.57
  -2  25   3   -4.67   25.70
  -2  25   3    1.74   23.61
   2  25  -3    7.34   24.77
  -2  25   4  326.41  104.35
  -2  25   4    5.86   80.81
   2  25  -4  534.55  112.47
  -2  25   5    2.25   27.52
  -2  25   5    5.21   23.91
   2  25  -5   22.81   47.46
  -2  25   6    1.61   31.00
  -2  25   6   -6.20   33.57
   2  25  -6  113.33   41.29
  -2  25   7   14.79   49.28
   2  25  -7   49.31   42.92
   2  25  -8   11.07   48.27
  -2  26   1   34.70   32.93
   2  26  -1    6.68   20.51
  -2  26   2  104.80   36.07
  -2  26   2   16.19   34.43
   2  26  -2   79.62   34.03
  -2  26   3   16.47   24.62
   2  26  -3   12.14   28.29
  -2  26   4    0.09   39.28
  -2  26   4   16.90   34.21
   2  26  -4  264.48   56.78
  -2  26   5   12.61   28.75
  -2  26   5   11.79   28.19
   2  26  -5   39.97   43.00
  -2  26   6   15.39   55.17
  -2  26   6    8.25   58.39
   2  26  -6  399.33   68.18
  -2  26   7   -5.41   32.65
   2  26  -7   13.20   49.14
  -2  27   1  170.21   72.54
   2  27  -1  137.04   65.02
  -2  27   2    3.34   52.53
  -2  27   2   12.21   42.88
   2  27  -2  391.94   58.08
  -2  27   3   -2.50   29.80
  -2  27   3    2.61   27.92
   2  27  -3   10.62   53.18
  -2  27   4   -4.32   61.77
   2  27  -4  333.79   81.71
  -2  27   5   -3.45   30.84
  -2  27   5    5.13   38.19
   2  27  -5  -13.31   52.75
  -2  27   6    9.11   42.80
   2  27  -6   35.95   44.26
  -2  28   1  -11.34   43.82
   2  28  -1   62.17   27.17
  -2  28   2    9.48   32.76
   2  28  -2    9.02   37.71
  -2  28   3    0.60   75.04
   2  28  -3  391.50   96.71
  -2  28   4   -6.37   27.35
   2  28  -4    5.23   42.00
  -2  28   5    5.98   91.89
   2  28  -5  557.46  110.65
  -2  29   1   13.97   46.31
   2  29  -1    2.22   37.24
  -2  29   2   -0.58  110.71
   2  29  -2  573.32  123.19
  -2  29   3  -10.13   28.77
   2  29  -3   11.32   48.33
   2  29  -4   94.00   64.95
   2  30  -1   54.23   43.51
  -1   0   1    2.23    3.64
  -1   0   1    0.78    7.54
   1   0  -1    4.69    9.03
  -1   0   2 5148.63 1534.82
  -1   0   3    0.21    5.89
  -1   0   3    2.10    6.86
  -1   0   3    0.28    7.63
   1   0  -3    0.17    3.78
   1   0  -3    0.20    4.83
  -1   0   4 4424.10 1347.67
  -1   0   4 3249.48 1082.86
   1   0  -4 3695.05 1347.33
   1   0  -4 3394.75 1082.87
  -1   0   5   17.09   11.47
  -1   0   5    0.75    6.95
   1   0  -5   -1.77    5.38
   1   0  -5    1.47    6.40
  -1   0   6  327.34  126.09
  -1   0   6  323.76  100.37
   1   0  -6  349.03  125.87
  -1   0   7   29.11   10.01
  -1   0   7    4.23    8.77
   1   0  -7   14.67    8.64
   1   0  -7   -1.71    8.68
  -1   0   8 2626.94  883.44
  -1   0   8 2301.37  709.18
   1   0  -8 2812.30  883.04
   1   0  -8 1892.51  708.82
  -1   0   9    5.93    9.87
  -1   0   9    0.97   15.24
   1   0  -9    4.88    9.51
   1   0  -9   -1.11    9.89
  -1   0  10   43.24   32.38
  -1   0  10   68.51   29.20
   1   0 -10  103.09   32.79
  -1   0  11   -3.22   16.32
  -1   0  11   -4.95   22.88
   1   0 -11   -2.08   11.72
  -1   0  12    6.50   16.25
  -1   0  12    7.53   30.68
  -1   0  13    7.01   18.22
  -1   0  13    1.12   31.13
  -1   0  14  804.61  320.78
  -1   0  14 1009.49  262.24
  -1   0  15   -3.20   55.01
  -1   1   1   27.91    8.84
  -1   1   1   24.26   10.25
   1  -1  -1   19.41   10.63
   1   1  -1   27.72   10.62
  -1  -1   1   27.77    8.58
  -1  -1   1   27.29   10.71
  -1   1   2 1160.20  624.38
  -1   1   2 1633.32  625.01
  -1   1   2 1917.66  501.80
  -1   1   2 1547.39  501.86
   1  -1  -2 1859.24  501.77
   1   1  -2 1823.95  625.10
   1   1  -2 1918.06  501.75
  -1  -1   2 1698.17  624.96
  -1  -1   2 1859.19  501.76
  -1  -1   2 1598.98  501.82
  -1   1   3 7575.12 2117.26
   1  -1  -3 7096.91 2117.04
  -1  -1   3 6632.35 2117.16
  -1   1   4    8.37    7.28
  -1   1   4    3.59    6.97
   1  -1  -4    2.44    4.87
   1   1  -4    5.27    5.64
   1   1  -4    6.72    5.83
  -1  -1   4    3.57    5.60
  -1  -1   4    5.19    7.54
  -1   1   5   -1.93   18.10
   1  -1  -5   70.62   12.84
   1   1  -5    3.87   15.43
   1   1  -5    0.53   11.93
  -1  -1   5    2.70   15.65
  -1  -1   5   -3.45   12.96
  -1   1   6  189.74   54.93
  -1   1   6  131.96   42.08
   1  -1  -6  141.09   52.95
   1  -1  -6  127.11   41.73
   1   1  -6  146.06   53.10
   1   1  -6  108.99   41.45
  -1  -1   6  149.14   53.38
  -1  -1   6  114.26   42.37
  -1   1   7  319.40   86.22
  -1   1   7  244.57   67.60
   1  -1  -7  245.15   84.73
   1  -1  -7  187.67   66.87
   1   1  -7  231.14   84.74
   1   1  -7  130.23   66.62
  -1  -1   7  261.99   85.24
  -1  -1   7  215.97   67.09
  -1   1   8  543.92  188.29
   1  -1  -8  666.64  188.07
   1  -1  -8  410.57  149.60
   1   1  -8  562.87  188.08
   1   1  -8  372.99  149.61
  -1  -1   8  486.98  188.37
  -1  -1   8  533.40  150.21
  -1   1   9 1080.03  423.91
  -1   1   9 1148.92  339.60
   1  -1  -9 1693.68  423.90
   1  -1  -9  853.48  338.90
   1   1  -9 1527.48  423.72
   1   1  -9  707.62  338.78
  -1  -1   9 1174.37  424.06
  -1  -1   9 1196.09  339.63
  -1   1  10   64.90   25.59
  -1   1  10   39.36   25.97
  -1   1  10   50.43   24.34
   1  -1 -10   64.37   24.92
   1   1 -10   60.88   24.85
  -1  -1  10   31.57   24.93
  -1  -1  10   39.41   21.97
  -1   1  11   14.45   16.30
  -1   1  11   25.33   23.69
   1   1 -11   15.32   14.58
  -1  -1  11   15.73   19.79
  -1   1  12    9.71   16.66
  -1   1  12   10.29   24.47
   1   1 -12    2.88   13.88
  -1  -1  12    4.13   16.49
  -1  -1  12   16.70   31.61
  -1   1  13  680.86  269.91
  -1   1  13  891.72  219.36
  -1  -1  13  693.44  270.47
  -1  -1  13  733.88  218.98
  -1   1  14   52.77   43.88
  -1   1  14   31.49   54.11
  -1  -1  14  152.81   46.56
  -1  -1  14   62.95   55.05
  -1   1  15    2.21   22.52
  -1   1  15  -18.33   54.87
  -1  -1  15   10.49   58.81
  -1   2   1  131.04   56.70
  -1   2   1  193.93   45.18
  -1   2   1  184.84   45.76
   1  -2  -1  150.68   45.66
   1   2  -1  167.07   45.36
  -1  -2   1  108.85   56.58
  -1  -2   1  185.95   45.01
  -1  -2   1  162.75   45.38
  -1   2   2  150.15   85.97
  -1   2   2  279.29   68.82
  -1   2   2  262.46   69.04
   1  -2  -2  242.18   68.72
   1   2  -2  251.77   86.91
   1   2  -2  275.47   68.64
  -1  -2   2  189.49   86.47
  -1  -2   2  262.54   68.72
  -1  -2   2  259.51   68.92
  -1   2   3  173.34   73.26
  -1   2   3  169.11   73.82
  -1   2   3  209.69   58.67
  -1   2   3  213.22   58.93
   1  -2  -3  210.90   58.37
   1   2  -3  225.04   74.35
   1   2  -3  203.76   58.34
  -1  -2   3  184.68   73.92
  -1  -2   3  188.30   58.34
  -1   2   4  189.65   82.01
  -1   2   4  232.10   65.36
   1  -2  -4  204.27   65.38
   1   2  -4  248.09   82.82
   1   2  -4  217.15   65.25
  -1  -2   4  232.80   82.86
  -1  -2   4  229.69   65.38
  -1   2   5   58.80   27.78
  -1   2   5  102.70   29.68
  -1   2   5   70.62   22.73
   1  -2  -5   76.87   28.02
   1  -2  -5   69.41   22.29
   1   2  -5   71.00   28.50
   1   2  -5   53.92   22.06
  -1  -2   5   73.93   28.50
  -1  -2   5   61.80   22.12
  -1   2   6  431.56  117.73
  -1   2   6  296.10   93.11
   1  -2  -6  336.22  116.84
   1  -2  -6  299.57   92.79
   1   2  -6  350.59  117.04
   1   2  -6  191.20   92.60
  -1  -2   6  300.04  117.26
  -1  -2   6  302.62   93.11
  -1   2   7  857.70  299.03
  -1   2   7 1173.74  300.51
  -1   2   7  743.19  239.86
   1  -2  -7 1000.22  299.67
   1  -2  -7  712.46  239.60
   1   2  -7  880.39  299.66
   1   2  -7  465.38  239.42
  -1  -2   7  745.61  300.00
  -1  -2   7  736.80  239.79
  -1   2   8 1713.46  536.04
  -1   2   8 1942.53  537.51
  -1   2   8 1383.61  430.44
   1  -2  -8 1846.40  536.74
   1  -2  -8 1138.58  430.05
   1   2  -8 1514.96  536.72
   1   2  -8  854.25  429.93
  -1  -2   8 1376.16  537.05
  -1  -2   8 1357.14  430.51
  -1   2   9    2.31   13.63
  -1   2   9    1.38    8.58
  -1   2   9    9.52   12.81
   1  -2  -9    2.18    8.96
   1   2  -9    9.61    9.27
   1   2  -9    2.45   10.08
  -1  -2   9    1.77    8.86
  -1  -2   9   12.41   15.32
  -1   2  10   38.38   19.21
  -1   2  10   26.08   19.27
  -1   2  10   30.37   20.87
   1   2 -10   34.03   18.24
  -1  -2  10   18.42   18.00
  -1  -2  10   40.98   20.40
  -1   2  11  179.42   67.16
  -1   2  11  152.26   56.78
   1   2 -11  161.42   68.43
  -1  -2  11  179.89   58.20
  -1   2  12  279.10  111.18
  -1   2  12  259.09   90.99
   1   2 -12  277.38  112.55
  -1  -2  12  381.86   92.80
  -1   2  13  375.59  177.65
  -1   2  13  501.57  145.47
  -1  -2  13  542.36  179.12
  -1  -2  13  512.19  148.16
  -1   2  14  926.40  352.42
  -1   2  14 1122.44  287.36
  -1  -2  14  867.18  352.73
  -1  -2  14  985.02  286.23
  -1   2  15    8.68   28.89
  -1   2  15    5.42   67.12
  -1  -2  15   17.17   80.55
  -1   3   1    5.13    7.92
  -1   3   1    3.99    6.61
  -1   3   1    5.30    8.55
   1  -3  -1    2.27    7.18
   1  -3  -1    2.69    9.30
   1   3  -1   39.66    8.98
   1   3  -1    4.83    7.98
  -1  -3   1   55.26    7.70
  -1  -3   1    3.64    5.87
  -1  -3   1    3.87    7.72
  -1   3   2  367.70  230.42
  -1   3   2  793.98  184.98
  -1   3   2  639.48  185.11
   1  -3  -2  460.45  230.57
   1  -3  -2  778.51  184.94
   1   3  -2  800.30  184.85
  -1  -3   2  659.30  230.89
  -1  -3   2  742.81  184.85
  -1  -3   2  696.50  184.96
  -1   3   3   40.11   19.44
  -1   3   3   46.65   20.01
  -1   3   3   60.03   17.10
  -1   3   3   61.10   17.06
   1  -3  -3   49.80   15.44
   1   3  -3   62.75   21.13
   1   3  -3   53.23   15.33
  -1  -3   3   46.66   20.41
  -1  -3   3   38.75   15.36
  -1   3   4  562.30  228.67
  -1   3   4  678.67  229.37
  -1   3   4  538.77  183.34
   1  -3  -4  677.63  183.39
   1   3  -4  863.38  229.94
   1   3  -4  602.08  183.29
  -1  -3   4  530.59  229.42
  -1  -3   4  533.87  183.28
  -1   3   5  216.89   86.61
  -1   3   5  276.21   87.48
  -1   3   5  249.79   69.37
   1  -3  -5  224.02   69.13
   1   3  -5  244.84   87.52
   1   3  -5  180.59   68.89
  -1  -3   5  276.38   87.94
  -1  -3   5  199.02   69.10
  -1   3   6  182.48   63.77
  -1   3   6  238.58   65.11
  -1   3   6  170.05   50.99
   1  -3  -6  156.53   50.47
   1   3  -6  167.85   64.39
   1   3  -6   99.86   50.37
  -1  -3   6  196.85   65.12
  -1  -3   6  132.84   50.50
  -1   3   7  431.42  149.64
  -1   3   7  579.01  151.03
  -1   3   7  341.10  119.79
   1  -3  -7  400.81  119.54
   1   3  -7  474.99  150.56
   1   3  -7  197.46  119.25
  -1  -3   7  470.35  150.90
  -1  -3   7  342.32  119.64
  -1   3   8  306.83  104.48
  -1   3   8  366.33  106.93
  -1   3   8  280.74   83.55
   1  -3  -8  245.94   82.86
   1   3  -8  308.68  105.15
   1   3  -8  149.46   82.77
  -1  -3   8  337.00  106.09
  -1  -3   8  275.41   83.84
  -1   3   9   67.08   24.08
  -1   3   9   60.83   28.41
  -1   3   9   46.95   20.21
   1  -3  -9   42.18   18.14
   1   3  -9   54.92   23.58
   1   3  -9   33.89   17.90
  -1  -3   9   52.44   27.60
  -1  -3   9   61.52   22.02
  -1   3  10  228.93   84.43
  -1   3  10  215.60   68.95
   1   3 -10  210.09   85.18
  -1  -3  10  213.09   68.93
  -1   3  11  214.90   87.95
  -1   3  11  255.25   73.34
   1   3 -11  230.84   89.51
  -1  -3  11  234.25   73.10
  -1   3  12  253.12  113.23
  -1   3  12  320.03   94.37
   1   3 -12  308.97  114.67
  -1  -3  12  380.39   96.75
  -1   3  13  367.88  152.97
  -1   3  13  430.29  126.13
   1   3 -13  420.93  154.89
  -1  -3  13  446.73  127.33
  -1   3  14   12.32   21.61
  -1   3  14    5.27   38.32
  -1  -3  14   -6.32   54.75
  -1   3  15   -6.84   33.32
  -1   3  15   77.98   68.56
  -1  -3  15   -4.91   27.56
  -1  -3  15  115.74   73.08
  -1   4   1  724.17  262.96
  -1   4   1  945.98  210.97
  -1   4   1  801.87  211.11
   1  -4  -1  462.42  262.75
   1  -4  -1  947.53  211.35
   1   4  -1  905.40  263.19
   1   4  -1  801.51  210.89
  -1  -4   1  493.55  262.83
  -1  -4   1  916.77  210.82
  -1  -4   1  632.74  210.81
  -1   4   2    0.53    3.27
  -1   4   2    0.63    5.91
  -1   4   2    4.14    7.98
   1  -4  -2   -0.25    3.03
   1  -4  -2   -0.38    3.52
   1   4  -2    0.84    5.17
   1   4  -2    1.02    2.64
  -1  -4   2   -0.36    4.38
  -1  -4   2    1.72    3.86
  -1  -4   2    0.18    5.31
  -1   4   3   75.89   28.32
  -1   4   3   85.02   22.61
  -1   4   3   84.41   22.93
   1  -4  -3   70.93   22.49
   1   4  -3   71.02   28.80
   1   4  -3   75.19   21.77
  -1  -4   3   59.44   28.34
  -1  -4   3   60.59   22.01
  -1  -4   3   61.01   22.53
  -1   4   4   18.95   10.03
  -1   4   4   18.74    8.49
   1  -4  -4   25.37    9.26
   1   4  -4   27.42   13.15
   1   4  -4   17.07    8.07
  -1  -4   4   21.72   11.41
  -1  -4   4   18.84    8.90
  -1   4   5   57.93   26.87
  -1   4   5   96.52   28.18
  -1   4   5   86.65   22.58
   1  -4  -5   62.22   21.39
   1   4  -5   86.80   29.00
   1   4  -5   47.96   21.48
  -1  -4   5   68.53   28.35
  -1  -4   5   50.06   21.73
  -1   4   6    2.62    6.23
  -1   4   6    3.63    7.90
  -1   4   6    8.23    9.85
   1  -4  -6    6.86    7.02
   1   4  -6    5.80    9.19
  -1  -4   6    3.44    9.59
  -1  -4   6   -0.71    8.17
  -1   4   7   57.05   23.62
  -1   4   7   96.67   26.38
  -1   4   7   55.42   20.64
   1  -4  -7   49.54   18.82
   1   4  -7   64.47   25.13
   1   4  -7   21.96   18.89
  -1  -4   7   78.64   26.62
  -1  -4   7   56.93   20.59
  -1   4   8  250.68   89.57
  -1   4   8  334.41   91.58
  -1   4   8  254.98   71.98
   1  -4  -8  216.74   71.16
   1   4  -8  275.71   90.68
   1   4  -8  103.14   71.02
  -1  -4   8  288.90   91.74
  -1  -4   8  241.02   72.29
  -1   4   9  669.68  212.11
  -1   4   9  736.59  214.33
  -1   4   9  543.75  170.06
   1  -4  -9  443.61  169.42
   1   4  -9  677.28  213.22
   1   4  -9  317.27  169.28
  -1  -4   9  662.80  214.06
  -1  -4   9  634.05  170.65
  -1   4  10   17.41   12.91
  -1   4  10   19.36   19.10
   1   4 -10   14.86   13.03
  -1  -4  10   18.30   17.95
  -1   4  11    4.90   11.61
  -1   4  11    1.82   23.11
   1   4 -11   -4.06   19.01
  -1  -4  11   23.99   23.62
  -1   4  12    6.30   12.95
  -1   4  12    9.77   27.20
   1   4 -12   -2.83   17.41
  -1  -4  12    6.11   27.18
  -1   4  13  599.03  234.79
  -1   4  13  715.41  192.41
   1   4 -13  577.61  236.21
  -1  -4  13  714.95  194.05
  -1   4  14  145.74   69.95
  -1   4  14  193.63   65.87
   1   4 -14  184.42   72.35
  -1  -4  14  177.32   71.88
  -1  -4  14  169.97   71.46
  -1   4  15    4.44   28.79
  -1   4  15  197.72   59.85
  -1  -4  15   -8.64   29.14
  -1   5   1  180.56   65.36
  -1   5   1  246.77   52.07
   1  -5  -1  112.18   65.07
   1  -5  -1  223.16   52.68
   1   5  -1  233.72   65.67
  -1  -5   1  111.92   65.12
  -1  -5   1  215.67   51.73
  -1  -5   1  179.16   51.79
  -1   5   2  341.28  177.00
  -1   5   2  634.20  142.08
  -1   5   2  640.64  142.37
   1  -5  -2  284.65  177.05
   1  -5  -2  570.42  141.95
   1   5  -2  543.15  177.81
   1   5  -2  621.53  141.79
  -1  -5   2  511.99  141.81
  -1  -5   2  507.78  141.90
  -1   5   3  533.83  263.18
  -1   5   3  872.22  211.34
  -1   5   3 1079.66  211.89
   1  -5  -3  576.99  263.37
   1  -5  -3  760.15  211.30
   1   5  -3  879.03  264.42
   1   5  -3  831.46  211.13
  -1  -5   3  616.34  263.69
  -1  -5   3  685.72  211.13
  -1  -5   3  811.66  211.33
  -1   5   4  130.98   49.31
  -1   5   4  147.10   39.30
   1  -5  -4  132.92   39.34
   1   5  -4  159.97   50.90
   1   5  -4  117.42   39.02
  -1  -5   4  103.27   50.04
  -1  -5   4  117.76   39.35
  -1   5   5  825.52  245.93
  -1   5   5  694.47  196.56
   1  -5  -5  667.83  196.47
   1   5  -5  832.02  246.48
   1   5  -5  470.23  196.29
  -1  -5   5  647.23  245.80
  -1  -5   5  507.53  196.37
  -1   5   6   75.21   27.80
  -1   5   6  102.71   29.13
  -1   5   6   72.64   22.71
   1  -5  -6   54.96   22.35
   1   5  -6   85.33   29.30
   1   5  -6   35.23   21.71
  -1  -5   6   70.78   29.00
  -1  -5   6   70.43   22.48
  -1   5   7  375.26  124.16
  -1   5   7  419.17  125.41
  -1   5   7  399.59   99.72
   1  -5  -7  329.26   99.11
   1   5  -7  374.40  125.35
   1   5  -7   77.43   98.67
  -1  -5   7  348.44  125.24
  -1  -5   7  369.88   99.71
  -1   5   8  156.23   54.64
  -1   5   8  215.91   57.00
  -1   5   8  155.87   43.88
   1  -5  -8  130.59   43.17
   1   5  -8  151.98   55.80
   1   5  -8   52.47   42.81
  -1  -5   8  154.43   56.04
  -1   5   9  437.12  145.23
  -1   5   9  551.77  147.61
  -1   5   9  471.82  116.86
   1  -5  -9  262.32  115.61
   1   5  -9  454.19  146.40
   1   5  -9  270.92  115.98
  -1  -5   9  385.39  146.51
  -1   5  10   -2.42   11.45
  -1   5  10    2.28   16.10
   1   5 -10    0.07    9.49
  -1  -5  10    1.84   16.95
  -1   5  11  210.32   86.62
  -1   5  11  201.75   70.74
   1   5 -11  251.47   88.43
  -1  -5  11  244.91   74.21
  -1   5  12   60.23   28.83
  -1   5  12   63.58   30.23
   1   5 -12   64.16   32.30
  -1  -5  12   65.73   35.14
  -1   5  13  824.06  329.40
  -1   5  13 1105.83  267.02
   1   5 -13  821.82  330.87
  -1  -5  13  965.95  268.04
  -1   5  14   17.59   19.91
  -1   5  14    8.14   46.71
   1   5 -14   19.40   25.14
  -1  -5  14   24.64   59.89
  -1   5  15   13.99   29.34
  -1   5  15  114.23   58.23
  -1  -5  15   10.89   35.85
  -1   6   1  134.68   48.92
  -1   6   1  155.50   38.62
  -1   6   1  142.29   39.10
   1  -6  -1   78.76   48.50
   1  -6  -1  162.41   39.87
   1   6  -1  234.02   49.45
  -1  -6   1   73.83   48.53
  -1   6   2  716.47  339.88
  -1   6   2 1108.64  272.99
  -1   6   2 1060.00  273.20
   1  -6  -2  747.88  339.91
   1  -6  -2  937.62  272.93
   1   6  -2 1048.60  340.61
   1   6  -2 1315.07  272.79
  -1  -6   2  810.19  340.15
  -1  -6   2 1003.93  272.81
  -1   6   3  171.10   79.65
  -1   6   3  262.30   63.90
  -1   6   3  269.75   64.30
   1  -6  -3  215.64   79.83
   1  -6  -3  193.84   63.87
   1   6  -3  245.59   80.87
   1   6  -3  220.92   63.43
  -1  -6   3  211.60   80.32
  -1  -6   3  197.48   63.52
  -1  -6   3  208.34   63.69
  -1   6   4  431.41  194.52
  -1   6   4  611.93  195.32
  -1   6   4  609.15  156.05
  -1   6   4  671.83  156.54
   1  -6  -4  557.93  155.97
   1   6  -4  609.27  195.80
   1   6  -4  535.13  155.81
  -1  -6   4  372.48  195.06
  -1  -6   4  479.12  155.87
  -1   6   5   21.20   12.09
  -1   6   5   45.37   13.80
  -1   6   5   32.19   12.51
   1  -6  -5   23.67   10.12
   1   6  -5   33.06   14.82
   1   6  -5   19.82   10.26
  -1  -6   5   25.54   13.90
  -1  -6   5   22.04   11.25
  -1   6   6   71.51   30.22
  -1   6   6   94.62   31.39
  -1   6   6   77.08   25.18
   1  -6  -6   62.29   23.89
   1   6  -6  101.68   34.68
  -1  -6   6   68.26   31.23
  -1  -6   6   73.08   24.85
  -1   6   7  241.61   86.82
  -1   6   7  320.88   88.30
  -1   6   7  275.02   69.93
   1  -6  -7  222.34   69.34
   1   6  -7  270.96   88.31
   1   6  -7   43.40   68.73
  -1  -6   7  251.49   88.01
  -1  -6   7  259.91   69.88
  -1   6   8 2351.01  727.16
  -1   6   8 2178.77  584.46
   1  -6  -8 1958.02  584.06
   1   6  -8 2221.18  728.41
   1   6  -8  807.91  583.71
  -1  -6   8 2229.61  728.33
  -1  -6   8 2122.27  584.61
  -1   6   9  308.75   96.60
  -1   6   9  298.01   98.82
  -1   6   9  287.71   77.69
   1  -6  -9  197.26   76.75
   1   6  -9  338.35   98.39
   1   6  -9  172.88   77.18
  -1  -6   9  220.06   97.83
  -1  -6   9  258.88   78.30
  -1   6  10    4.41   10.37
  -1   6  10    2.84   19.95
   1   6 -10    1.83   10.70
  -1  -6  10   10.98   17.58
  -1   6  11  136.92   58.46
  -1   6  11  162.02   51.29
   1   6 -11  149.42   59.94
  -1  -6  11  158.45   54.19
  -1   6  12  115.83   49.82
  -1   6  12  143.17   47.21
   1   6 -12  109.08   51.88
  -1  -6  12  131.40   55.10
  -1   6  13   57.37   28.55
  -1   6  13   59.04   35.37
   1   6 -13   59.28   35.70
  -1  -6  13   48.45   45.04
  -1   6  14 1250.41  514.52
  -1   6  14 1825.53  416.98
   1   6 -14 1330.95  516.52
  -1  -6  14 1535.29  418.56
  -1   6  15  151.11   74.15
  -1   7   1   60.19   21.58
  -1   7   1   63.37   16.36
  -1   7   1   83.28   18.03
   1  -7  -1   39.15   20.71
   1  -7  -1   77.22   20.07
   1   7  -1   69.73   22.06
  -1  -7   1   29.23   20.65
  -1   7   2   13.80   11.33
  -1   7   2   10.29   11.77
   1  -7  -2   91.88   13.79
   1  -7  -2    7.00   11.47
   1   7  -2    9.71   14.39
  -1  -7   2    7.92   13.72
  -1   7   3 7195.14 1989.70
  -1   7   3 8804.17 1990.11
   1  -7  -3 6152.20 2473.69
   1  -7  -3 7885.22 1989.73
   1   7  -3 7864.01 2474.64
  -1  -7   3 5111.91 2473.95
  -1  -7   3 5440.72 1989.47
  -1   7   4  420.10  222.78
  -1   7   4  703.07  223.66
  -1   7   4  676.74  178.80
  -1   7   4  749.03  179.27
   1  -7  -4  624.22  223.08
   1  -7  -4  732.27  178.80
   1   7  -4  726.87  224.21
   1   7  -4  558.45  178.53
  -1  -7   4  453.68  223.30
  -1   7   5   82.04   23.96
  -1   7   5   65.24   19.54
   1  -7  -5   45.81   18.01
   1   7  -5   55.99   25.22
  -1  -7   5   43.85   23.50
  -1  -7   5   41.63   18.42
  -1   7   6    0.84    6.01
  -1   7   6   -0.47    6.76
  -1   7   6    3.82    8.65
   1   7  -6   -2.34   14.05
   1   7  -6    4.05    6.92
  -1  -7   6    1.35    7.30
  -1  -7   6   -0.81    8.28
  -1   7   7  199.73   49.94
  -1   7   7  184.33   39.63
   1  -7  -7   95.01   38.09
   1   7  -7  147.81   50.12
   1   7  -7   35.15   38.01
  -1  -7   7  128.47   49.43
  -1  -7   7  132.59   39.28
  -1   7   8   68.69   22.71
  -1   7   8   77.79   25.03
  -1   7   8   73.11   20.74
   1  -7  -8   32.71   17.92
   1   7  -8   65.00   25.07
   1   7  -8   26.09   19.71
  -1  -7   8   47.97   24.11
  -1  -7   8   54.05   19.82
  -1   7   9 1551.51  517.05
  -1   7   9 1651.14  518.61
  -1   7   9 1571.10  415.68
   1  -7  -9  938.88  414.79
   1   7  -9 1635.44  518.57
  -1  -7   9 1122.20  517.94
  -1  -7   9 1642.12  416.02
  -1   7  10  482.24  189.85
  -1   7  10  550.86  152.95
   1   7 -10  517.70  191.47
  -1  -7  10  507.85  153.20
  -1   7  11   -0.72   10.99
  -1   7  11   12.78   19.98
   1   7 -11    0.38   14.97
  -1   7  12  102.22   44.98
  -1   7  12  125.53   41.43
   1   7 -12  100.58   48.22
  -1  -7  12  127.73   54.24
  -1   7  13  578.60  227.48
  -1   7  13  756.78  185.36
   1   7 -13  511.29  228.90
  -1  -7  13  737.46  188.80
  -1   7  14   96.60   49.93
  -1   7  14  155.59   60.59
   1   7 -14  105.69   56.06
  -1  -7  14  123.01   63.77
  -1   7  15   -0.63   54.70
  -1   8   1  404.94   88.57
  -1   8   1  390.12   88.87
   1  -8  -1  220.66  110.64
   1  -8  -1  483.02   89.71
   1   8  -1  407.70  111.28
  -1  -8   1  168.74  110.63
  -1   8   2 1879.42  848.38
  -1   8   2 2738.97  682.04
  -1   8   2 2968.82  682.34
   1  -8  -2 2838.58  682.05
   1   8  -2 2402.19  849.01
  -1  -8   2 1818.26  848.47
  -1   8   3   52.00   23.59
  -1   8   3   86.19   20.27
  -1   8   3   82.39   19.93
   1  -8  -3   60.81   23.88
   1  -8  -3   72.17   19.02
   1   8  -3   67.77   25.41
   1   8  -3   51.32   18.00
  -1  -8   3   39.78   24.16
  -1  -8   3   49.48   18.41
  -1  -8   3   54.14   18.60
  -1   8   4 2643.08 1110.34
  -1   8   4 3227.74  892.85
  -1   8   4 3730.04  893.31
   1  -8  -4 3285.92 1110.58
   1  -8  -4 3254.59  892.82
   1   8  -4 3320.36 1111.73
   1   8  -4 2858.54  892.60
  -1  -8   4 2398.54 1110.83
  -1   8   5   96.29   43.78
  -1   8   5  155.74   44.99
  -1   8   5  141.14   35.53
   1  -8  -5  115.61   35.12
   1   8  -5  157.04   45.85
   1   8  -5   84.52   34.59
  -1  -8   5   86.83   44.42
  -1  -8   5  116.80   35.07
  -1   8   6   89.80   32.65
  -1   8   6  118.03   33.89
  -1   8   6   99.77   26.68
   1  -8  -6   67.63   26.02
   1   8  -6  106.56   35.82
   1   8  -6   42.54   25.67
  -1  -8   6   72.89   33.50
  -1   8   7  611.76  219.11
  -1   8   7  784.37  220.38
  -1   8   7  710.76  176.15
   1  -8  -7  515.98  175.45
   1   8  -7  822.48  221.29
   1   8  -7  271.34  175.29
  -1  -8   7  550.34  219.97
  -1  -8   7  557.03  175.86
  -1   8   8 1572.82  492.40
  -1   8   8 1735.99  493.94
  -1   8   8 1616.73  395.92
   1  -8  -8  945.66  395.07
   1   8  -8 1759.94  494.19
   1   8  -8  678.42  395.00
  -1  -8   8 1119.27  493.33
  -1  -8   8 1692.32  396.13
  -1   8   9  187.18   51.79
  -1   8   9  163.77   53.65
  -1   8   9  152.82   42.20
   1  -8  -9   17.64   40.13
   1   8  -9  191.26   54.02
  -1  -8   9  102.03   52.92
  -1  -8   9  178.07   43.85
  -1   8  10   44.71   22.72
  -1   8  10   56.31   25.84
   1   8 -10   55.83   24.47
  -1  -8  10   37.09   25.40
  -1   8  11    6.95   13.17
  -1   8  11   17.64   25.07
   1   8 -11   14.07   19.07
  -1  -8  11    6.04   34.18
  -1   8  12    8.43   15.68
  -1   8  12    8.26   28.56
   1   8 -12    2.66   17.19
  -1  -8  12   17.49   34.96
  -1   8  13  225.24   92.33
  -1   8  13  272.88   81.93
   1   8 -13  226.59   94.66
  -1  -8  13  249.67   85.96
  -1   8  14  278.57  116.45
  -1   8  14  310.73   99.76
   1   8 -14  311.46  119.19
  -1  -8  14  296.24  106.70
  -1   8  15   55.25   60.08
  -1   9   1  187.54   69.17
  -1   9   1  266.47   54.94
  -1   9   1  229.92   55.23
   1  -9  -1  130.58   68.76
   1  -9  -1  285.28   56.34
   1   9  -1  232.72   69.53
  -1  -9   1  111.40   68.82
  -1   9   2 2280.50  947.45
  -1   9   2 3439.38  761.75
  -1   9   2 3146.34  761.99
   1  -9  -2 2211.11  947.38
   1  -9  -2 2607.61  761.64
   1   9  -2 2907.02  948.07
  -1  -9   2 2204.15  947.52
  -1   9   3 1469.19  698.76
  -1   9   3 2284.73  561.71
  -1   9   3 2264.98  562.04
   1  -9  -3 1917.26  698.84
   1  -9  -3 2289.43  561.67
   1   9  -3 2166.91  699.80
  -1  -9   3 1408.04  699.01
  -1   9   4  616.12  239.96
  -1   9   4  685.21  192.51
  -1   9   4  873.93  193.21
   1  -9  -4  760.10  240.19
   1  -9  -4  669.97  192.48
   1   9  -4  705.14  241.30
   1   9  -4  570.71  192.22
  -1  -9   4  475.28  240.34
  -1  -9   4  535.57  192.28
  -1   9   5    5.97    5.09
  -1   9   5   11.61    7.41
  -1   9   5    8.97    9.85
  -1   9   5    6.69    7.82
   1   9  -5    3.25    9.42
   1   9  -5    5.41    5.42
  -1  -9   5    4.50    6.06
  -1   9   6  187.01   74.81
  -1   9   6  294.77   76.28
  -1   9   6  227.42   60.14
   1  -9  -6  162.14   59.60
   1   9  -6  263.23   76.96
   1   9  -6  157.96   59.79
  -1  -9   6  156.93   75.41
  -1  -9   6  196.68   59.97
  -1   9   7  409.99  143.37
  -1   9   7  552.06  144.85
  -1   9   7  494.30  115.51
   1  -9  -7  293.33  114.43
   1   9  -7  562.99  145.86
   1   9  -7  203.89  114.44
  -1  -9   7  304.90  143.97
  -1  -9   7  369.75  115.03
  -1   9   8 1190.04  390.36
  -1   9   8 1473.61  392.11
  -1   9   8  989.83  313.63
   1  -9  -8  586.38  312.84
   1   9  -8 1246.84  392.02
  -1  -9   8 1000.04  313.78
  -1   9   9  586.21  174.45
  -1   9   9  563.36  176.15
  -1   9   9  488.88  139.99
   1   9  -9  618.39  176.41
   1   9  -9  235.18  139.29
  -1  -9   9  323.38  175.13
  -1  -9   9  523.48  141.07
  -1   9  10   -0.11   14.02
  -1   9  10    9.66   21.01
   1   9 -10    6.70   14.26
  -1  -9  10   -6.70   20.81
  -1   9  11   49.09   25.01
  -1   9  11   44.40   29.77
   1   9 -11   53.44   27.64
  -1  -9  11   57.00   39.35
  -1   9  12  112.06   46.28
  -1   9  12  102.33   44.56
   1   9 -12   92.70   46.68
  -1  -9  12  114.47   55.90
  -1   9  13  509.30  186.05
  -1   9  13  491.82  151.22
   1   9 -13  432.35  187.35
  -1  -9  13  520.92  159.26
  -1   9  14   -1.95   21.92
  -1   9  14   -4.54   44.42
   1   9 -14    5.12   36.58
  -1  -9  14   39.22   63.70
  -1  10   1  330.26  121.23
  -1  10   1  462.02   96.75
  -1  10   1  394.74   96.94
   1 -10  -1  231.20  120.83
   1 -10  -1  487.76   97.56
   1  10  -1  433.89  121.48
  -1 -10   1  202.30  120.85
  -1  10   2    2.61    6.03
  -1  10   2    6.57    7.19
  -1  10   2    4.04    7.45
   1 -10  -2    1.61    4.72
   1 -10  -2   -2.46    5.50
   1  10  -2    3.17    6.68
  -1 -10   2   -1.14    5.55
  -1  10   3   68.75   31.19
  -1  10   3  102.17   25.60
  -1  10   3  104.31   25.87
   1 -10  -3   84.97   31.55
   1 -10  -3   90.41   25.03
   1  10  -3   79.45   32.80
  -1 -10   3   57.60   31.63
  -1  10   4   78.00   29.96
  -1  10   4   80.91   24.09
  -1  10   4  109.72   25.04
   1 -10  -4   84.36   30.11
   1 -10  -4   70.36   23.74
   1  10  -4  100.45   31.87
   1  10  -4   52.12   23.06
  -1 -10   4   61.38   30.31
  -1  10   5   98.96   38.19
  -1  10   5  123.70   39.06
  -1  10   5  130.55   31.38
  -1  10   5  100.30   31.25
   1 -10  -5  109.41   38.47
   1 -10  -5   84.97   30.16
   1  10  -5  109.25   39.87
   1  10  -5   66.26   29.88
  -1 -10   5   72.14   38.64
  -1  10   6  582.80  203.05
  -1  10   6  912.46  204.52
  -1  10   6  586.49  162.98
   1 -10  -6  450.42  162.61
   1  10  -6  613.68  204.82
   1  10  -6  396.98  162.61
  -1 -10   6  362.82  203.51
  -1 -10   6  500.24  162.97
  -1  10   7  844.89  322.48
  -1  10   7 1373.99  324.17
  -1  10   7 1027.87  259.33
   1 -10  -7  569.53  258.57
   1  10  -7 1118.49  324.80
  -1 -10   7  551.02  323.06
  -1 -10   7  918.21  259.30
  -1  10   8  166.97   49.32
  -1  10   8  178.06   51.23
  -1  10   8  129.05   40.98
   1 -10  -8   73.44   38.77
   1  10  -8  191.64   52.64
   1  10  -8   83.15   39.51
  -1 -10   8   94.91   49.63
  -1 -10   8  126.00   41.12
  -1  10   9   43.09   16.31
  -1  10   9   36.40   16.44
   1  10  -9   39.89   19.32
   1  10  -9    9.49   17.22
  -1 -10   9   29.55   23.06
  -1  10  10   21.41   17.34
  -1  10  10   21.52   19.17
   1  10 -10   22.01   18.11
  -1 -10  10   16.38   32.51
  -1  10  11    7.04   17.52
  -1  10  11   18.12   22.02
   1  10 -11   10.03   17.27
  -1 -10  11   30.04   40.12
  -1  10  12  636.31  234.65
  -1  10  12  618.08  189.69
   1  10 -12  569.54  236.51
  -1 -10  12  688.06  194.72
  -1  10  13  534.67  182.54
  -1  10  13  595.98  149.66
   1  10 -13  339.10  183.75
  -1 -10  13  425.67  156.82
  -1  10  14   -5.15   30.45
  -1  10  14  142.15   51.31
   1  10 -14  103.82   40.52
  -1  11   1  134.30   46.94
  -1  11   1  168.27   36.88
  -1  11   1  161.55   37.29
   1 -11  -1   91.67   46.32
   1 -11  -1  170.64   38.17
  -1 -11   1   92.14   46.30
  -1  11   2   72.16   27.41
  -1  11   2   88.32   21.61
  -1  11   2   94.37   22.25
   1 -11  -2   73.08   21.37
   1  11  -2   59.99   27.92
  -1 -11   2   46.22   27.15
  -1  11   3  713.79  281.59
  -1  11   3  859.04  226.01
   1 -11  -3  736.24  281.64
   1 -11  -3  887.50  225.93
   1  11  -3  846.02  282.57
  -1 -11   3  591.19  281.73
  -1  11   4  174.26   61.17
  -1  11   4  149.43   48.81
  -1  11   4  201.91   49.61
   1 -11  -4  163.05   61.46
   1 -11  -4  174.46   48.79
   1  11  -4  173.42   62.60
  -1 -11   4  116.73   61.49
  -1  11   5   14.14    8.78
  -1  11   5   12.64    9.35
  -1  11   5   11.76   10.42
   1 -11  -5   13.54    8.16
   1 -11  -5    7.49    6.83
   1  11  -5   18.40   10.40
   1  11  -5    6.63    6.92
  -1 -11   5    6.80    9.21
  -1 -11   5    9.70    8.34
  -1  11   6  129.67   48.89
  -1  11   6  198.03   50.41
  -1  11   6  141.49   39.52
  -1  11   6  115.23   39.56
   1 -11  -6  100.93   38.90
   1  11  -6  162.77   51.37
   1  11  -6  102.33   39.49
  -1 -11   6   90.40   49.48
  -1 -11   6  137.44   39.62
  -1  11   7  327.46  112.71
  -1  11   7  469.82  114.49
  -1  11   7  388.40   91.19
   1 -11  -7  201.62   89.82
   1  11  -7  352.45  115.32
   1  11  -7  218.87   90.24
  -1 -11   7  190.02  113.06
  -1 -11   7  438.89   91.99
  -1  11   8    4.83    6.83
  -1  11   8    7.07   10.19
  -1  11   8    6.91   14.69
   1 -11  -8    1.87    7.10
   1  11  -8    3.44   19.39
   1  11  -8   -1.77   12.36
  -1 -11   8    2.36    8.94
  -1 -11   8    8.59   21.21
  -1  11   9  121.36   38.47
  -1  11   9  131.42   33.61
   1  11  -9  130.81   41.93
   1  11  -9   30.76   33.01
  -1  11  10  155.72   58.07
   1  11 -10  189.42   73.48
  -1 -11  10  201.90   65.25
  -1  11  11  139.93   51.81
  -1  11  11  104.40   45.01
   1  11 -11  126.67   54.20
  -1 -11  11  105.94   57.67
  -1  11  12  184.75   68.89
  -1  11  12  171.67   58.94
   1  11 -12  138.16   70.18
  -1 -11  12  176.27   75.18
  -1  11  13   14.68   20.76
  -1  11  13   13.11   32.03
   1  11 -13   18.47   21.66
  -1 -11  13  -11.16   56.86
  -1  11  14    7.44   47.50
   1  11 -14   -4.21   38.16
  -1  12   1  468.08  158.02
  -1  12   1  575.46  126.19
   1 -12  -1  284.81  157.47
   1  12  -1  575.70  158.27
  -1 -12   1  318.02  157.52
  -1  12   2   10.40    8.25
  -1  12   2   13.03    7.71
  -1  12   2   14.35    7.65
   1 -12  -2    7.57    6.61
   1  12  -2    8.18    9.46
  -1 -12   2    5.40    7.21
  -1  12   3   62.18   23.73
  -1  12   3   84.47   20.31
  -1  12   3   66.65   20.14
   1 -12  -3   48.55   23.76
   1 -12  -3   57.08   18.81
   1  12  -3   58.89   25.16
  -1 -12   3   45.37   23.93
  -1  12   4   45.70   18.43
  -1  12   4   53.06   14.93
  -1  12   4   61.93   16.54
   1 -12  -4   42.95   18.75
   1 -12  -4   40.79   14.79
   1  12  -4   60.86   21.85
  -1 -12   4   26.84   18.78
  -1  12   5   76.99   27.73
  -1  12   5   86.69   23.55
  -1  12   5   72.49   23.88
   1 -12  -5   93.72   28.16
   1 -12  -5   59.41   21.86
   1  12  -5   77.20   29.82
   1  12  -5   41.30   21.47
  -1 -12   5   50.76   28.22
  -1  12   6   -0.56    7.05
  -1  12   6    2.76    7.93
  -1  12   6    5.12   11.27
  -1  12   6    5.07    8.12
   1 -12  -6    3.79    7.43
   1  12  -6    1.53    9.03
   1  12  -6   -0.18    9.93
  -1 -12   6    2.08    7.50
  -1 -12   6   -5.68   14.24
  -1  12   7   14.55    8.78
  -1  12   7   16.62   11.08
  -1  12   7    7.30   13.20
  -1  12   7    6.29   10.89
   1 -12  -7    5.59    7.82
   1  12  -7   20.34   14.36
  -1 -12   7   11.82   10.52
  -1 -12   7   19.58   17.52
  -1  12   8 1050.58  302.29
  -1  12   8 1092.45  303.96
  -1  12   8 1062.16  243.35
   1 -12  -8  352.65  241.84
   1  12  -8 1402.81  305.25
   1  12  -8  530.75  242.30
  -1 -12   8  492.55  302.56
  -1 -12   8 1261.50  244.41
  -1  12   9   53.78   20.65
  -1  12   9   52.83   21.47
   1  12  -9   82.30   26.79
   1  12  -9   11.06   22.02
  -1 -12   9   76.87   35.85
  -1  12  10   95.13   37.20
  -1  12  10   80.83   33.77
   1  12 -10   82.93   40.27
  -1 -12  10   87.35   45.43
  -1  12  11   23.23   17.26
  -1  12  11   25.19   24.86
   1  12 -11   30.28   22.04
  -1 -12  11   36.39   46.78
  -1  12  12    4.92   14.57
  -1  12  12   -0.52   26.54
   1  12 -12   13.51   19.97
  -1 -12  12    7.11   47.12
  -1  12  13   99.73   46.58
  -1  12  13  148.28   47.49
   1  12 -13   79.21   47.82
  -1 -12  13  118.64   74.13
  -1  12  14    2.44  104.26
  -1  12  14  755.46  106.01
   1  12 -14  528.96  114.43
  -1  13   1  157.49   54.28
  -1  13   1  197.97   42.51
  -1  13   1  167.04   42.87
   1 -13  -1  107.48   53.22
   1  13  -1  163.68   54.33
  -1 -13   1   94.02   53.21
  -1  13   2   28.66   13.36
  -1  13   2   44.65   10.37
  -1  13   2   34.15   10.98
   1 -13  -2   18.55   12.02
   1  13  -2   27.40   14.26
  -1 -13   2   17.57   12.77
  -1  13   3 1381.32  534.53
  -1  13   3 1829.35  429.47
  -1  13   3 1698.83  429.78
   1 -13  -3 1391.17  534.46
   1 -13  -3 1645.87  429.30
   1  13  -3 1427.87  535.41
  -1 -13   3 1035.46  534.48
  -1  13   4  252.19  103.15
  -1  13   4  277.22   82.43
  -1  13   4  333.58   83.33
   1 -13  -4  291.77  103.37
   1 -13  -4  274.18   82.26
   1  13  -4  354.50  104.93
  -1 -13   4  212.14  103.41
  -1  13   5  442.48  155.92
  -1  13   5  533.13  125.21
  -1  13   5  460.79  125.53
   1 -13  -5  406.36  156.13
   1 -13  -5  413.66  124.69
   1  13  -5  491.31  157.74
  -1 -13   5  257.09  156.03
  -1  13   6   71.33   24.14
  -1  13   6   84.48   25.04
  -1  13   6   67.31   20.40
  -1  13   6   65.06   20.84
   1 -13  -6   47.46   19.06
   1  13  -6   62.58   26.56
   1  13  -6   29.00   18.69
  -1 -13   6   43.16   24.20
  -1 -13   6   71.43   20.80
  -1  13   7  291.24   86.29
  -1  13   7  353.13   88.08
  -1  13   7  256.66   69.77
  -1  13   7  177.30   69.44
   1 -13  -7  122.20   68.16
   1  13  -7  302.48   88.83
   1  13  -7  197.52   69.05
  -1 -13   7  162.54   86.69
  -1  13   8   33.14   16.01
  -1  13   8   25.50   16.91
   1  13  -8   52.38   29.02
   1  13  -8   16.38   16.67
  -1  13   9 1026.79  267.99
   1  13  -9  970.09  270.62
   1  13  -9  161.33  214.18
  -1 -13   9  983.95  217.84
  -1  13  10  278.99  104.58
  -1  13  10  265.96   86.46
   1  13 -10  265.43  107.25
  -1 -13  10  276.02   92.02
  -1  13  11  141.37   55.80
  -1  13  11  149.14   51.92
   1  13 -11  114.41   57.88
  -1 -13  11  143.70   62.20
  -1  13  12   18.38   16.83
   1  13 -12    7.74   20.69
  -1 -13  12    5.10   57.41
  -1  13  13 1050.38  335.03
  -1  13  13 1115.25  271.86
   1  13 -13  574.09  336.16
  -1 -13  13  656.57  279.80
  -1  13  14   84.86   59.70
  -1  14   1    9.08   11.27
  -1  14   1    9.02    6.12
  -1  14   1   10.90    9.09
   1 -14  -1    3.40    6.63
   1  14  -1    7.31   10.73
  -1 -14   1    0.87    6.59
  -1  14   2  708.44  198.96
  -1  14   2  705.56  159.17
  -1  14   2  677.44  159.54
   1 -14  -2  387.42  198.40
   1  14  -2  526.61  199.26
  -1 -14   2  374.17  198.47
  -1  14   3  209.15   68.86
  -1  14   3  219.58   55.15
   1 -14  -3  170.32   68.62
   1  14  -3  215.17   69.87
  -1 -14   3  132.52   68.54
  -1  14   4  492.67  168.98
  -1  14   4  502.55  135.35
  -1  14   4  522.67  135.95
   1 -14  -4  474.86  169.07
   1 -14  -4  422.27  135.06
   1  14  -4  538.30  170.45
  -1 -14   4  299.60  168.95
  -1  14   5  207.23   68.08
  -1  14   5  218.94   54.76
  -1  14   5  212.65   55.50
   1 -14  -5  185.63   68.43
   1 -14  -5  137.98   53.96
   1  14  -5  223.46   70.19
  -1 -14   5  113.84   68.13
  -1  14   6   45.76   14.16
  -1  14   6   55.98   16.36
  -1  14   6   38.55   15.47
  -1  14   6   36.73   14.31
   1 -14  -6   27.56   15.09
   1 -14  -6   15.29   12.25
   1  14  -6   43.83   17.65
   1  14  -6    5.26   11.19
  -1 -14   6   21.91   14.83
  -1  14   7   30.50   12.99
  -1  14   7   35.14   15.94
  -1  14   7   24.28   17.59
  -1  14   7   23.13   14.26
   1 -14  -7    9.48    9.72
   1  14  -7   33.26   17.78
   1  14  -7   15.67   13.02
  -1 -14   7   14.02   14.42
  -1 -14   7   28.35   19.37
  -1  14   8 1727.37  491.66
  -1  14   8 1296.69  395.01
   1  14  -8 1908.64  494.21
   1  14  -8  558.25  394.12
  -1 -14   8 1372.41  395.52
  -1  14   9 1085.58  387.09
  -1  14   9  997.90  311.26
   1  14  -9 1061.53  389.77
  -1 -14   9  855.37  312.05
  -1  14  10   -0.22   11.19
  -1  14  10    2.98   20.45
   1  14 -10    6.14   17.06
  -1 -14  10    4.36   30.12
  -1  14  11  330.57  118.90
  -1  14  11  344.10   98.37
   1  14 -11  271.84  121.19
  -1 -14  11  256.19  102.92
  -1  14  12   68.06   33.19
  -1  14  12   87.21   41.79
   1  14 -12   42.26   34.56
  -1 -14  12   69.87   77.88
  -1  14  13   -0.63   26.98
  -1  15   1  299.43  101.31
  -1  15   1  362.05   80.21
   1 -15  -1  195.41  100.27
   1  15  -1  331.57  101.43
  -1 -15   1  213.33  100.36
  -1  15   2  656.78  181.66
  -1  15   2  661.19  145.21
  -1  15   2  572.83  145.48
   1 -15  -2  325.47  180.92
   1  15  -2  516.97  181.90
  -1 -15   2  341.08  181.01
  -1  15   3 3100.66  930.77
  -1  15   3 3095.31  748.07
  -1  15   3 2939.92  748.51
   1 -15  -3 2304.28  930.52
   1 -15  -3 2151.98  747.81
   1  15  -3 2808.29  931.62
  -1 -15   3 1726.48  930.50
  -1  15   4 1053.00  374.20
  -1  15   4 1367.96  300.51
  -1  15   4 1152.41  300.82
   1 -15  -4 1028.34  374.20
   1 -15  -4  788.60  299.99
   1  15  -4 1352.50  375.66
  -1 -15   4  686.40  374.06
  -1  15   5  316.55  108.62
  -1  15   5  359.25   87.15
  -1  15   5  305.95   87.73
   1 -15  -5  349.23  109.02
   1 -15  -5  194.40   86.39
   1  15  -5  396.42  110.87
  -1 -15   5  195.15  108.70
  -1  15   6   53.19   18.97
  -1  15   6   55.99   18.68
  -1  15   6   57.64   17.80
   1 -15  -6   56.97   20.64
   1 -15  -6   26.23   15.75
   1  15  -6   50.63   22.08
  -1 -15   6   22.37   20.18
  -1  15   7  143.95   37.18
  -1  15   7  141.87   39.91
  -1  15   7  112.62   32.08
   1 -15  -7   52.04   29.39
   1  15  -7  130.91   40.78
   1  15  -7   19.85   28.47
  -1 -15   7  113.70   33.24
  -1  15   8    0.88    9.52
  -1  15   8    0.78   14.56
   1  15  -8   -5.06   19.44
   1  15  -8    1.19   13.31
  -1 -15   8   -3.92   26.11
  -1  15   9  927.65  334.92
  -1  15   9  791.51  269.03
   1  15  -9  960.19  337.96
  -1 -15   9  792.51  270.91
  -1  15  10  972.18  340.75
  -1  15  10  898.53  274.31
   1  15 -10  785.50  342.70
  -1  15  11   10.78   13.93
  -1  15  11   -1.32   25.84
   1  15 -11   12.49   19.96
  -1 -15  11   -0.56   55.10
  -1  15  12  328.26  106.45
  -1  15  12  316.08   88.88
   1  15 -12  176.13  106.66
  -1 -15  12  121.89  109.16
  -1  15  13   -6.27   32.15
  -1  15  13  205.47   56.33
   1  15 -13   99.59   42.91
  -1  16   1  969.18  330.77
  -1  16   1 1150.45  264.89
  -1  16   1 1178.97  265.68
   1 -16  -1  619.86  329.88
   1  16  -1 1167.91  330.92
  -1 -16   1  656.47  329.97
  -1  16   2 1243.75  348.87
  -1  16   2 1281.47  279.68
  -1  16   2 1258.76  280.21
   1 -16  -2  606.03  348.05
   1  16  -2 1013.86  349.18
  -1 -16   2  676.75  348.20
  -1  16   3  134.07   38.75
  -1  16   3  123.83   31.68
   1 -16  -3   73.70   38.12
   1  16  -3  112.50   39.48
  -1 -16   3   70.38   37.75
  -1  16   4 1105.10  355.83
  -1  16   4 1101.29  285.52
  -1  16   4 1199.54  286.27
   1 -16  -4  804.39  355.69
   1 -16  -4 1069.79  285.36
   1  16  -4 1174.69  357.11
  -1 -16   4  578.74  355.42
  -1  16   5  553.40  153.10
  -1  16   5  419.49  122.47
  -1  16   5  462.35  123.30
   1 -16  -5  385.06  153.03
   1 -16  -5  387.21  122.21
   1  16  -5  503.13  154.95
  -1 -16   5  226.65  152.66
  -1  16   6    7.45    6.98
  -1  16   6    8.50   13.81
  -1  16   6    6.11   14.78
   1 -16  -6    4.80   11.61
   1 -16  -6   -1.15   10.43
   1  16  -6    6.80   13.17
  -1 -16   6    1.61    8.64
  -1  16   7 1658.01  593.38
  -1  16   7 1446.20  476.85
   1  16  -7 1597.40  595.38
  -1  16   8  289.56   69.99
  -1  16   8  248.38   58.32
   1  16  -8  235.83   73.05
   1  16  -8   21.72   54.40
  -1 -16   8  178.36   59.32
  -1  16   9  219.28   79.77
  -1  16   9  193.32   66.49
   1  16  -9  225.44   86.64
  -1 -16   9  130.02   69.44
  -1  16  10  214.54   70.60
  -1  16  10  179.51   61.63
   1  16 -10  122.12   73.26
  -1 -16  10  129.45   70.03
  -1  16  11   -0.30   12.82
  -1  16  11   -2.89   32.46
   1  16 -11    6.02   19.80
  -1 -16  11  -16.50   44.26
  -1  16  12   59.91   31.88
  -1  16  12   65.47   43.45
   1  16 -12   38.68   33.40
  -1  16  13    7.21   52.80
  -1  16  13  333.13   64.45
   1  16 -13  247.12   67.02
  -1  17   1  121.02   43.63
  -1  17   1  147.37   33.56
  -1  17   1  166.39   36.74
   1 -17  -1   69.63   41.93
   1  17  -1  137.41   44.49
  -1 -17   1   70.56   41.95
  -1  17   2 1819.18  514.15
  -1  17   2 1993.62  412.59
  -1  17   2 1904.28  413.17
   1 -17  -2  840.03  513.27
   1  17  -2 1520.11  514.37
  -1 -17   2  956.23  513.35
  -1  17   3    3.18   10.21
  -1  17   3    4.78    7.65
  -1  17   3    5.31   11.34
   1 -17  -3    5.72    9.55
   1  17  -3    4.55   10.75
  -1 -17   3    1.58    7.53
  -1  17   4  564.86  150.74
  -1  17   4  487.78  120.62
  -1  17   4  506.69  121.42
   1 -17  -4  284.23  150.19
   1 -17  -4  363.79  120.30
   1  17  -4  503.14  152.11
  -1 -17   4  251.25  150.14
  -1  17   5   13.46    8.77
  -1  17   5    7.08   12.17
  -1  17   5   10.99   13.20
   1 -17  -5    6.72   11.61
   1 -17  -5    4.91   10.50
   1  17  -5   16.51   12.82
  -1 -17   5    2.47    8.75
  -1  17   6  222.17   67.81
  -1  17   6  239.29   55.66
  -1  17   6  152.71   55.46
   1 -17  -6   94.12   53.28
   1  17  -6  208.74   70.09
  -1  17   7  631.56  239.21
  -1  17   7  609.29  192.38
   1  17  -7  687.68  241.58
  -1  17   8  942.35  318.21
  -1  17   8  718.71  255.45
   1  17  -8  752.48  320.16
  -1  17   9    0.28    9.99
  -1  17   9   -5.47   23.32
   1  17  -9   10.04   31.59
  -1 -17   9    0.64   31.74
  -1  17  10   13.53   14.22
  -1  17  10   17.12   24.68
   1  17 -10   20.73   21.69
  -1  17  11  107.42   41.38
  -1  17  11  120.51   42.45
   1  17 -11   84.53   45.71
  -1 -17  11   36.75   60.60
  -1  17  12  118.76   46.45
  -1  17  12   97.21   46.19
   1  17 -12   41.79   45.81
  -1  17  13  107.50   69.08
  -1  18   1   94.46   33.15
  -1  18   1  103.00   24.95
  -1  18   1  121.02   27.43
   1 -18  -1   44.45   30.76
   1  18  -1  100.79   33.75
  -1 -18   1   47.98   30.99
  -1  18   2   39.30   15.73
  -1  18   2   40.00   16.98
   1 -18  -2   12.79   13.11
   1  18  -2   29.26   15.06
  -1 -18   2   13.41   12.21
  -1  18   3   10.32   11.78
  -1  18   3   12.86    9.06
  -1  18   3    6.94   10.96
   1 -18  -3    2.67    9.28
  -1 -18   3    5.06    8.66
  -1  18   4  327.79   85.93
  -1  18   4  316.34   68.73
  -1  18   4  278.35   69.97
   1 -18  -4  146.37   85.24
   1 -18  -4  165.49   68.19
   1  18  -4  326.06   87.65
  -1 -18   4  136.71   85.10
  -1  18   5   14.98   13.01
  -1  18   5   24.32   13.78
  -1  18   5   10.96   18.49
   1  18  -5   10.91   14.54
  -1  18   6  614.74  226.47
  -1  18   6  556.90  181.86
   1  18  -6  636.96  228.62
  -1  18   7  219.99   76.53
  -1  18   7  151.70   62.88
   1  18  -7  188.04   79.08
  -1  18   8   26.26   14.73
  -1  18   8   19.59   18.43
   1  18  -8   25.94   21.40
  -1  18   9   16.20   12.71
  -1  18   9    6.39   20.48
   1  18  -9   14.06   29.01
  -1  18  10    3.88   11.12
  -1  18  10   -6.09   24.79
   1  18 -10    3.22   24.53
  -1 -18  10  -10.18   35.75
  -1  18  11   20.07   16.21
  -1  18  11    8.79   36.78
   1  18 -11   -1.30   22.31
  -1  18  12    1.77   73.68
  -1  18  12  655.03   89.15
   1  18 -12  321.80   81.81
  -1  19   1  145.61   44.31
  -1  19   1  163.39   36.23
   1 -19  -1   64.58   42.05
   1  19  -1  139.89   44.34
  -1 -19   1   86.27   42.58
  -1  19   2  257.28   53.91
  -1  19   2  278.09   56.71
   1 -19  -2  122.30   66.12
   1  19  -2  216.57   67.65
  -1 -19   2  111.80   66.18
  -1  19   3 1365.82  319.05
  -1  19   3 1192.05  255.63
  -1  19   3 1058.33  256.19
   1 -19  -3  458.49  317.77
   1  19  -3  988.34  319.51
  -1 -19   3  505.26  317.79
  -1  19   4   12.67   12.59
  -1  19   4   13.75   12.87
  -1  19   4   10.48   14.51
   1  19  -4    6.53   15.46
  -1  19   5   17.67   13.68
  -1  19   5    8.03   12.23
   1  19  -5   16.56   15.54
  -1  19   6  100.21   40.40
  -1  19   6   92.08   34.99
   1  19  -6  100.13   43.59
  -1  19   7   97.06   35.80
  -1  19   7   73.27   33.69
   1  19  -7   64.12   39.05
  -1  19   8   63.85   29.49
  -1  19   8   51.70   26.65
   1  19  -8   66.23   35.01
  -1  19   9  398.33  151.41
  -1  19   9  395.10  125.50
   1  19  -9  402.43  155.70
  -1  19  10   28.59   17.98
  -1  19  10   32.84   49.49
   1  19 -10   23.63   33.77
  -1  19  11   60.86   31.64
  -1  19  11   91.13   51.53
   1  19 -11   37.18   34.76
  -1  19  12    3.70   20.39
  -1  19  12   21.03   42.13
   1  19 -12    7.65   30.34
  -1  20   1  638.42  180.87
  -1  20   1  740.38  144.10
  -1  20   1  640.96  145.36
   1 -20  -1  261.51  179.22
   1  20  -1  544.92  180.50
  -1 -20   1  300.60  179.34
  -1  20   2   36.30   18.30
  -1  20   2   30.99   15.91
  -1  20   2   32.65   22.95
   1 -20  -2   12.49   13.77
   1  20  -2   29.56   16.63
  -1  20   3    2.76   13.54
  -1  20   3    5.68   13.93
  -1  20   3    3.87   16.58
   1  20  -3    0.87   12.40
  -1  20   4   12.10   14.15
  -1  20   4   19.02   16.47
  -1  20   4    1.28   15.48
   1  20  -4   21.46   20.33
  -1  20   5  243.36   90.91
  -1  20   5  217.73   74.58
   1  20  -5  244.67   94.43
  -1  20   6   27.14   17.67
   1  20  -6   28.45   25.45
  -1  20   7  490.89  178.89
  -1  20   7  424.05  144.23
   1  20  -7  483.29  181.44
  -1  20   8 1071.50  352.51
  -1  20   8  833.80  283.70
   1  20  -8  740.68  354.29
  -1  20   9   70.07   33.19
  -1  20   9   65.57   42.83
   1  20  -9   80.35   47.98
  -1  20  10   10.91   16.74
  -1  20  10   30.85   53.89
   1  20 -10   14.00   33.60
  -1  20  11   -0.77   15.83
   1  20 -11    4.63   23.42
  -1  21   1   17.19   17.07
  -1  21   1   25.83   15.64
  -1  21   1    6.90   17.90
   1  21  -1   10.70   15.60
  -1  21   2  300.01  117.81
  -1  21   2  321.53   93.71
  -1  21   2  297.28   95.24
  -1  21   3  335.95  122.23
  -1  21   3  334.62   97.52
  -1  21   3  244.67   98.71
   1  21  -3  324.34  122.96
  -1  21   4 1248.73  455.93
  -1  21   4 1102.83  365.84
   1  21  -4 1309.68  457.40
  -1  21   5  197.45   76.03
  -1  21   5  178.30   63.71
   1  21  -5  206.90   80.03
  -1  21   6   91.51   35.22
  -1  21   6   55.12   40.94
   1  21  -6   68.25   39.84
  -1  21   7  306.08  106.81
  -1  21   7  244.23   88.50
   1  21  -7  239.54  108.72
  -1  21   8    3.89   15.33
  -1  21   8   -1.58   35.41
   1  21  -8   18.11   21.12
  -1  21   9  387.69  155.13
  -1  21   9  408.15  130.05
   1  21  -9  443.82  159.76
  -1  21  10  912.74  272.51
  -1  21  10    5.09  221.60
   1  21 -10  761.12  276.42
  -1  21  11   -1.38   17.99
  -1  21  11   -3.85   45.85
   1  21 -11   34.75   45.63
  -1  22   1   75.36   33.87
  -1  22   1   79.14   28.49
  -1  22   1   41.21   32.94
   1  22  -1   88.15   34.32
  -1  22   2  515.85  156.13
  -1  22   2  331.71  123.65
  -1  22   2  335.69  125.32
  -1  22   3   48.89   24.63
  -1  22   3   34.00   21.98
   1  22  -3   52.95   24.57
  -1  22   4  295.77  125.77
  -1  22   4  295.60  101.20
   1  22  -4  417.89  127.98
  -1  22   5  639.94  238.26
  -1  22   5  625.31  192.95
   1  22  -5  631.23  240.57
  -1  22   6   15.56   18.45
  -1  22   6    2.37   30.70
   1  22  -6   15.24   22.03
  -1  22   7  263.11   88.72
  -1  22   7  175.02   75.87
   1  22  -7  195.05   91.10
  -1  22   8  436.39  144.93
  -1  22   8  331.50  122.28
   1  22  -8  282.02  146.75
  -1  22   9 1847.51  518.87
  -1  22   9  -18.90  415.43
   1  22  -9 1384.51  521.75
  -1  22  10   66.26   30.02
  -1  22  10   23.34   58.06
   1  22 -10   54.63   44.08
  -1  22  11    4.14   42.95
   1  22 -11  265.97   66.31
  -1  23   1  269.17  103.61
  -1  23   1  266.77   82.80
   1  23  -1  269.12  103.89
  -1  23   2  624.98  208.81
  -1  23   2  495.92  166.48
   1  23  -2  524.51  208.74
  -1  23   3  559.25  179.83
  -1  23   3  415.83  143.31
   1  23  -3  417.67  179.96
  -1  23   4  891.50  354.81
  -1  23   4  880.31  285.33
   1  23  -4 1111.23  356.62
  -1  23   5  627.48  220.05
  -1  23   5  507.70  179.03
   1  23  -5  579.62  222.25
  -1  23   6  391.47  128.65
  -1  23   6  260.05  105.55
   1  23  -6  295.33  131.35
  -1  23   7   96.51   36.99
  -1  23   7   54.23   43.10
   1  23  -7   70.52   40.48
  -1  23   8   62.69   26.02
  -1  23   8  -11.50   43.04
   1  23  -8   41.79   29.78
  -1  23   9   59.63   29.13
  -1  23   9   11.57   61.02
   1  23  -9   60.30   39.17
  -1  23  10  527.43  252.29
   1  23 -10  943.54  265.27
  -1  24   1  886.06  347.14
   1  24  -1  968.65  347.39
  -1  24   2  210.40   72.87
  -1  24   2  122.75   57.98
   1  24  -2  195.83   71.38
  -1  24   3   71.43   35.38
  -1  24   3   50.35   30.50
   1  24  -3   90.99   38.35
  -1  24   4  195.34   83.97
  -1  24   4  198.97   73.94
   1  24  -4  255.89   87.03
  -1  24   5  418.66  164.27
  -1  24   5  358.64  135.66
   1  24  -5  531.53  167.42
  -1  24   6   31.72   20.90
  -1  24   6   27.48   34.77
   1  24  -6   25.52   25.80
  -1  24   7  956.23  261.98
  -1  24   7   -2.18  209.30
   1  24  -7  717.94  263.86
  -1  24   8   16.76   19.27
  -1  24   8    4.03   55.60
   1  24  -8    2.45   22.91
  -1  24   9    8.51   22.58
  -1  24   9   32.14   63.56
   1  24  -9    7.75   31.42
  -1  24  10   -2.79   27.12
   1  24 -10   91.76   58.38
  -1  25   1  144.97   56.37
  -1  25   1  109.44   47.09
   1  25  -1  151.18   56.60
  -1  25   2  310.42  130.21
   1  25  -2  373.22  131.07
  -1  25   3  577.94  202.79
  -1  25   3  413.44  164.16
   1  25  -3  589.74  203.68
  -1  25   4   49.58   28.38
  -1  25   4   26.07   42.00
   1  25  -4   48.84   31.75
  -1  25   5    3.95   16.68
  -1  25   5   -8.81   32.85
   1  25  -5    7.22   24.28
  -1  25   6  266.07   79.19
  -1  25   6   -7.90   69.73
   1  25  -6  240.30   81.92
  -1  25   7  269.80   82.33
  -1  25   7    6.00   80.93
   1  25  -7  223.82   85.10
  -1  25   8  202.81   73.92
   1  25  -8  129.69   75.70
  -1  25   9   76.54   42.00
   1  25  -9   93.42   59.69
  -1  26   1   10.66   17.90
  -1  26   1    4.96   25.42
   1  26  -1    7.22   17.23
  -1  26   2   81.34   35.22
  -1  26   2   45.28   44.50
   1  26  -2   87.22   35.53
  -1  26   3   -5.68   22.92
   1  26  -3    2.02   23.08
  -1  26   4  416.92  132.02
  -1  26   4  158.11  111.32
   1  26  -4  378.23  133.38
   1  26  -5   16.25   26.65
  -1  26   6  306.92   97.09
  -1  26   6    0.16   88.35
   1  26  -6  325.44  100.39
  -1  26   7   23.70   21.46
  -1  26   7   -4.73   62.92
   1  26  -7   23.67   26.76
  -1  26   8  104.37   48.54
   1  26  -8   85.59   57.27
  -1  27   1   11.38   17.68
  -1  27   1    4.28   38.57
   1  27  -1    0.70   17.81
  -1  27   2  541.91  227.23
   1  27  -2  666.21  228.12
  -1  27   3  243.28   86.44
  -1  27   3   75.63   75.06
   1  27  -3  286.92   88.62
  -1  27   4  254.00   96.79
   1  27  -4  209.10   96.18
  -1  27   5   14.03   26.12
  -1  27   5  -21.07   48.08
   1  27  -5   17.41   27.63
  -1  27   6  105.37   40.99
  -1  27   6   -7.19   55.53
   1  27  -6  107.39   44.87
  -1  27   7    8.15   28.67
   1  27  -7   17.60   42.20
  -1  27   8  123.42   68.15
   1  27  -8  172.01   78.28
  -1  28   1  409.16  158.69
   1  28  -1  414.32  159.13
  -1  28   2    0.12   18.80
   1  28  -2    4.51   18.99
  -1  28   3    4.59   22.84
   1  28  -3    6.95   27.68
  -1  28   4    7.13   25.72
   1  28  -4   -3.62   27.73
  -1  28   5  410.88  159.87
   1  28  -5  410.87  161.88
  -1  28   6   82.66   47.20
   1  28  -6   77.09   50.15
  -1  28   7  564.10  186.17
   1  28  -7  319.33  186.54
  -1  29   1    6.27   20.21
   1  29  -1   12.16   20.75
  -1  29   2  198.36   95.22
   1  29  -2  280.67   97.21
  -1  29   3   -4.39   19.76
   1  29  -3    9.38   30.36
  -1  29   4  693.22  277.29
   1  29  -4  780.65  278.82
  -1  29   5    5.74   33.92
   1  29  -5    2.61   40.88
  -1  29   6  106.33   63.27
   1  29  -6   88.34   57.91
  -1  30   1   94.20   44.10
   1  30  -1   83.96   44.18
  -1  30   2   57.99   39.99
   1  30  -2  100.52   46.23
  -1  30   3   26.68   26.17
   1  30  -3   23.63   40.64
  -1  30   4   69.57   45.10
   1  30  -4   88.27   52.67
  -1  30   5  259.50  127.02
   1  30  -5  380.86  130.56
  -1  31   1  110.02   54.21
   1  31  -1  109.56   54.22
  -1  31   2  179.31   77.59
   1  31  -2  180.30   80.42
  -1  31   3    6.39   31.88
   1  31  -3   10.12   40.81
   0   0   1    1.79    2.77
   0   0  -1    2.26    2.82
   0   0   2  272.09  112.97
   0   0   2  304.60   89.79
   0   0  -2  316.26  112.93
   0   0  -2  309.71   89.82
   0   0   3    2.58    6.26
   0   0   3    2.08    6.64
   0   0  -3    0.57    6.46
   0   0  -3    2.40    5.73
   0   0   4  785.59  303.54
   0   0   4  869.21  243.01
   0   0  -4  768.94  303.35
   0   0  -4  848.04  242.93
   0   0   5   12.29   13.65
   0   0   5    0.49    8.19
   0   0  -5    4.56    7.02
   0   0  -5    1.55    8.81
   0   0   6 7250.76 2373.01
   0   0   6 7797.78 1907.95
   0   0  -6 4707.95 2372.45
   0   0  -6 6439.65 1907.68
   0   0   7    2.09   14.30
   0   0   7   -1.91    9.83
   0   0  -7    1.73    7.13
   0   0  -7    1.60    9.23
   0   0   8  246.32  119.43
   0   0   8  522.30   96.14
   0   0  -8  274.96  119.23
   0   0  -8  293.50   94.55
   0   0   9   -0.87   12.82
   0   0   9   -0.78   12.85
   0   0  -9   -0.95    8.31
   0   0  -9    3.13   10.82
   0   0  10 2081.35  442.93
   0   0 -10 1176.48  550.36
   0   0  11    8.04   24.15
   0   0 -11   14.91   14.39
   0   0  12   61.29   36.22
   0   0  12  141.84   39.08
   0   0  13   -5.61   22.49
   0   0  13   -5.83   37.28
   0   0  14   -2.91   19.48
   0   0  14   11.62   45.09
   0   0  15   13.98   32.95
   0   0  15  -17.34   83.27
   0   1   2  495.23  201.51
   0   1   2  558.46  161.09
   0  -1  -2  550.71  201.47
   0  -1  -2  533.03  161.08
   0   1  -2  611.01  201.71
   0  -1   2  481.33  201.75
   0  -1   2  557.36  161.09
   0   1   3   10.38    9.72
   0   1   3   22.99    8.63
   0  -1  -3   18.40    9.34
   0  -1  -3   21.45    7.88
   0   1  -3   15.14   10.08
   0   1  -3   18.94    7.99
   0  -1   3   11.91   12.13
   0  -1   3   26.72    9.14
   0   1   4 2354.92  887.35
   0   1   4 2672.31  712.81
   0  -1  -4 2390.18  887.21
   0  -1  -4 2233.33  712.68
   0   1  -4 2205.74  887.31
   0   1  -4 2435.10  712.71
   0  -1   4 2318.99  887.54
   0  -1   4 2652.08  712.80
   0   1   5 7258.23 2408.48
   0   1   5 7727.15 1936.64
   0  -1  -5 5234.63 2408.13
   0  -1  -5 6478.56 1936.45
   0   1  -5 5442.69 2408.24
   0   1  -5 6305.45 1936.44
   0  -1   5 6512.29 2408.69
   0  -1   5 7939.84 1936.65
   0   1   6  125.25   48.93
   0   1   6  132.72   38.31
   0  -1  -6  101.91   47.51
   0  -1  -6   93.45   37.32
   0   1  -6   99.63   47.63
   0   1  -6  209.32   38.22
   0  -1   6   73.06   47.64
   0  -1   6  137.47   37.99
   0   1   7   38.33   22.28
   0   1   7   65.89   17.82
   0  -1  -7   45.19   18.39
   0  -1  -7   33.80   14.34
   0   1  -7   37.61   18.45
   0   1  -7   39.67   14.83
   0  -1   7   23.33   18.31
   0  -1   7   47.35   15.87
   0   1   8   23.42   17.70
   0   1   8   26.63   12.52
   0  -1  -8   17.98   11.60
   0  -1  -8   15.06    8.68
   0   1  -8   13.86   11.34
   0   1  -8   10.78    9.53
   0  -1   8   13.79   11.14
   0  -1   8   20.01   12.49
   0   1   9   10.37   16.90
   0   1   9   35.88   15.38
   0  -1  -9   17.20   14.51
   0  -1  -9   18.36   12.94
   0   1  -9   32.52   14.35
   0   1  -9   17.12   11.55
   0  -1   9   34.35   17.93
   0  -1   9   32.65   17.63
   0   1  10  671.47  141.37
   0  -1 -10  417.20  174.76
   0   1 -10  340.18  174.43
   0  -1  10  605.43  140.83
   0   1  11 1782.69  820.62
   0   1  11 3315.17  661.27
   0   1 -11 1654.79  821.21
   0  -1  11 3675.42  661.96
   0   1  12   45.31   29.74
   0   1  12  110.43   35.40
   0   1 -12   50.00   29.62
   0  -1  12   48.64   30.85
   0  -1  12  126.32   34.57
   0   1  13   66.92   41.07
   0   1  13  160.86   49.57
   0  -1  13   77.66   42.28
   0  -1  13  164.42   44.27
   0   1  14   59.62   38.56
   0   1  14  142.08   53.75
   0  -1  14  114.10   53.99
   0   1  15  259.57  148.48
   0   1  15  621.12  143.42
   0  -1  15  632.02  152.97
   0   2   1  522.91  231.28
   0  -2  -1  572.32  231.31
   0   2  -1  818.07  231.95
   0  -2   1  753.47  231.87
   0   2   2   73.04   32.98
   0   2   2   81.02   33.19
   0   2   2  112.78   26.42
   0  -2  -2   83.39   25.88
   0   2  -2   99.85   33.83
   0   2  -2   79.76   25.81
   0  -2   2   62.45   33.52
   0  -2   2  113.71   26.06
   0   2   3   39.35   22.36
   0   2   3   66.09   17.68
   0  -2  -3   54.97   22.57
   0  -2  -3   50.06   17.33
   0   2  -3   75.35   24.78
   0   2  -3   56.07   17.43
   0  -2   3   45.26   23.28
   0  -2   3   61.33   17.64
   0   2   4  520.48  239.51
   0   2   4  726.34  191.78
   0  -2  -4  631.53  239.45
   0  -2  -4  716.24  191.67
   0   2  -4  625.66  239.72
   0   2  -4  627.30  191.60
   0  -2   4  523.99  239.72
   0  -2   4  812.41  191.77
   0   2   5 1163.22  414.76
   0   2   5 1326.35  332.57
   0  -2  -5 1086.08  414.44
   0  -2  -5 1143.12  332.36
   0   2  -5  892.52  414.62
   0   2  -5 1142.08  332.38
   0  -2   5  829.79  414.75
   0  -2   5 1447.19  332.62
   0   2   6 1093.38  399.78
   0   2   6 1339.34  320.51
   0  -2  -6 1010.19  399.40
   0  -2  -6 1141.45  320.19
   0   2  -6  858.30  399.49
   0   2  -6 1122.89  320.21
   0  -2   6  830.71  399.69
   0  -2   6 1323.13  320.49
   0   2   7   28.90   19.84
   0   2   7   40.92   15.66
   0  -2  -7   34.09   17.69
   0  -2  -7   43.78   13.79
   0   2  -7   26.58   17.95
   0   2  -7   46.40   14.50
   0  -2   7   24.55   17.42
   0  -2   7   63.76   15.80
   0   2   8  525.51  194.71
   0   2   8  737.86  155.58
   0  -2  -8  477.76  193.80
   0  -2  -8  521.17  154.55
   0   2  -8  423.35  193.76
   0   2  -8  502.20  154.66
   0  -2   8  374.53  193.99
   0  -2   8  749.56  155.58
   0   2   9  168.76   66.36
   0   2   9  146.95   66.95
   0   2   9  343.16   55.29
   0  -2  -9  198.26   66.78
   0  -2  -9  138.53   52.14
   0   2  -9  149.50   66.47
   0   2  -9  112.86   51.87
   0  -2   9  121.10   66.64
   0  -2   9  288.56   54.62
   0   2  10 1599.44  690.24
   0   2  10 2403.20  555.62
   0   2 -10 1500.54  690.98
   0  -2  10 2827.96  556.19
   0   2  11   46.28   32.63
   0   2  11  122.96   33.91
   0   2 -11   68.88   34.37
   0  -2  11  118.79   34.35
   0   2  12   99.79   48.40
   0   2  12  161.54   46.19
   0   2 -12   82.98   48.24
   0  -2  12  185.05   48.54
   0   2  13  183.36   90.09
   0   2  13  459.13   81.36
   0   2 -13  169.44   91.02
   0  -2  13  209.30   91.43
   0  -2  13  391.76   80.22
   0   2  14   59.35   38.87
   0   2  14  163.79   54.76
   0  -2  14   66.88   39.52
   0  -2  14  157.31   49.16
   0   2  15  179.05  105.96
   0   2  15  397.04  109.10
   0  -2  15  470.01  126.52
   0   3   0    2.41    3.37
   0  -3   0    0.30    2.26
   0  -3   0    1.33    1.51
   0  -3   0    2.70    3.39
   0   3   1   24.54   14.71
   0   3   1   55.26   11.62
   0  -3  -1   27.29   14.83
   0  -3  -1   49.46   11.47
   0   3  -1   44.98   15.72
   0   3  -1   56.35   11.56
   0  -3   1   32.05   15.37
   0  -3   1   47.62   11.45
   0   3   2    8.59    6.81
   0   3   2   19.87    7.04
   0  -3  -2    9.78    7.29
   0  -3  -2   14.53    5.77
   0   3  -2   16.66    7.97
   0   3  -2   16.41    5.93
   0  -3   2    9.69    7.85
   0  -3   2   17.62    6.49
   0   3   3  216.24   93.74
   0   3   3  237.35   94.16
   0   3   3  282.27   74.83
   0  -3  -3  278.25   74.83
   0   3  -3  263.52   94.86
   0   3  -3  253.85   74.76
   0  -3   3  186.08   94.44
   0  -3   3  341.65   74.93
   0   3   4  250.49  107.01
   0   3   4  266.46  107.57
   0   3   4  350.60   85.75
   0  -3  -4  340.46   85.50
   0   3  -4  283.26  108.01
   0   3  -4  280.17   85.39
   0  -3   4  202.89  107.76
   0  -3   4  359.36   85.67
   0   3   5   49.04   25.81
   0   3   5   64.16   26.26
   0   3   5   67.42   21.01
   0  -3  -5   70.36   25.89
   0  -3  -5   76.50   20.07
   0   3  -5   48.25   26.30
   0   3  -5   75.49   20.89
   0  -3   5   49.63   26.11
   0  -3   5   77.54   21.00
   0   3   6  606.41  281.75
   0   3   6  756.24  282.53
   0   3   6 1061.17  226.47
   0  -3  -6  873.56  282.39
   0  -3  -6  810.79  225.94
   0   3  -6  589.26  282.43
   0   3  -6  795.61  225.99
   0  -3   6  586.80  282.52
   0  -3   6  953.49  226.31
   0   3   7  114.27   50.52
   0   3   7  134.09   51.79
   0   3   7  173.92   41.35
   0  -3  -7  142.48   50.86
   0  -3  -7  142.54   39.61
   0   3  -7  112.73   50.96
   0   3  -7  126.78   39.99
   0  -3   7   89.37   50.96
   0  -3   7  157.58   40.64
   0   3   8   71.42   32.08
   0   3   8   81.76   34.48
   0   3   8  121.94   28.01
   0  -3  -8   78.30   24.39
   0   3  -8   61.71   32.01
   0   3  -8   69.33   25.11
   0  -3   8   42.33   31.90
   0  -3   8  125.80   27.20
   0   3   9  620.78  215.36
   0   3   9  417.29  216.04
   0   3   9 1041.50  174.06
   0  -3  -9  546.76  172.08
   0   3  -9  558.59  215.91
   0   3  -9  373.62  171.85
   0  -3   9  399.69  216.09
   0  -3   9  977.07  173.91
   0   3  10  685.67  289.93
   0   3  10 1188.31  234.16
   0   3 -10  567.00  290.52
   0  -3  10 1090.52  234.07
   0   3  11  280.72  141.78
   0   3  11  618.95  117.02
   0   3 -11  322.25  143.02
   0  -3  11  565.59  117.88
   0   3  12  439.71  218.21
   0   3  12 1012.97  179.29
   0   3 -12  430.94  219.30
   0  -3  12 1014.74  179.27
   0   3  13   20.91   19.58
   0   3  13   53.89   35.17
   0   3 -13   22.23   21.54
   0  -3  13   40.55   39.09
   0   3  14   93.67   55.33
   0   3  14  226.71   58.32
   0  -3  14  186.37   58.19
   0   3  15  181.65  101.03
   0   3  15  467.95  101.44
   0  -3  15  189.78  101.73
   0  -3  15  567.75  120.76
   0   4   0  532.75  268.24
   0   4   0 1109.87  215.11
   0   4   0 1097.76  215.14
   0  -4   0  403.80  268.17
   0  -4   0 1109.69  215.11
   0   4   1  409.66  215.69
   0   4   1  836.59  172.98
   0  -4  -1  408.31  215.69
   0  -4  -1  880.89  172.99
   0   4  -1  594.48  216.26
   0   4  -1  809.69  172.92
   0  -4   1  517.23  216.09
   0  -4   1  774.71  172.91
   0   4   2   64.20   27.13
   0   4   2  103.74   22.08
   0  -4  -2   56.16   27.15
   0  -4  -2   85.06   21.34
   0   4  -2   78.31   28.35
   0  -4   2   40.48   27.86
   0  -4   2   99.57   21.56
   0   4   3 1562.62  739.65
   0   4   3 2157.18  740.27
   0   4   3 2247.76  594.57
   0  -4  -3 2443.01  594.57
   0   4  -3 2304.25  740.65
   0   4  -3 2368.78  594.54
   0  -4   3 1440.56  740.35
   0  -4   3 2014.96  594.51
   0   4   4    6.38    6.76
   0   4   4    7.03    7.46
   0   4   4   12.86    7.50
   0  -4  -4   10.34    5.88
   0   4  -4    8.38   13.35
   0   4  -4   10.61    6.13
   0  -4   4    5.60   10.70
   0  -4   4   10.50    8.15
   0   4   5    8.65    9.04
   0   4   5    7.12    7.97
   0   4   5   11.91    9.23
   0  -4  -5   10.82    7.02
   0   4  -5   11.09    9.35
   0   4  -5    9.86    7.95
   0  -4   5    1.83    9.60
   0  -4   5   15.94    8.17
   0   4   6  151.36   66.98
   0   4   6  164.46   67.72
   0   4   6  236.67   53.99
   0  -4  -6  196.66   53.16
   0   4  -6  150.24   67.75
   0   4  -6  182.68   53.33
   0  -4   6  132.23   67.71
   0  -4   6  240.96   54.07
   0   4   7  244.43   96.94
   0   4   7  253.94   97.77
   0   4   7  364.38   78.11
   0  -4  -7  271.45   76.92
   0   4  -7  192.00   97.35
   0   4  -7  249.29   77.15
   0  -4   7  175.00   97.46
   0  -4   7  362.93   78.20
   0   4   8   10.62   12.25
   0   4   8   10.44   15.82
   0   4   8   15.61   14.59
   0  -4  -8    7.45    9.14
   0   4  -8   11.12   10.70
   0   4  -8   12.81   11.37
   0  -4   8    5.97   12.59
   0  -4   8   26.30   12.98
   0   4   9   80.62   27.94
   0   4   9   39.32   28.36
   0   4   9  126.22   26.45
   0  -4  -9   38.93   21.72
   0   4  -9   61.08   28.32
   0   4  -9   39.80   21.95
   0  -4   9   52.55   28.85
   0  -4   9  116.37   25.27
   0   4  10  137.53   65.31
   0   4  10  232.41   55.39
   0   4 -10  145.17   66.20
   0  -4  10  253.38   55.23
   0   4  11  201.69  104.35
   0   4  11  438.78   87.72
   0   4 -11  240.30  105.73
   0  -4  11  432.94   87.09
   0   4  12   -2.26   13.10
   0   4  12    3.69   28.32
   0   4 -12  -10.57   17.51
   0  -4  12  -11.59   31.90
   0   4  13   40.93   26.80
   0   4  13  115.17   39.35
   0   4 -13   31.95   29.73
   0  -4  13   80.49   36.94
   0   4  14    4.53   21.19
   0   4  14   12.69   36.70
   0   4 -14   11.46   18.75
   0  -4  14    9.26   22.98
   0  -4  14   24.27   46.85
   0   4  15  658.30  322.35
   0   4  15 1532.79  270.52
   0  -4  15  705.22  323.04
   0  -4  15 1598.05  280.15
   0   5   0   -0.35    6.01
   0   5   0    0.63    2.87
   0   5   0    2.44    5.09
   0  -5   0    0.52    3.46
   0  -5   0    0.72    1.90
   0   5   1   16.87    8.99
   0   5   1   31.31    7.12
   0  -5  -1   10.67    8.33
   0  -5  -1   29.44    6.87
   0   5  -1   20.53   10.52
   0   5  -1   28.86    6.73
   0  -5   1   14.76    9.91
   0  -5   1   26.88    6.75
   0   5   2  219.43   98.12
   0   5   2  361.79   78.53
   0  -5  -2  203.51   98.12
   0  -5  -2  357.24   78.36
   0   5  -2  293.84   99.13
   0   5  -2  394.92   78.41
   0  -5   2  180.92   98.65
   0   5   3   17.45    9.23
   0   5   3   23.28   10.57
   0  -5  -3   23.78   10.06
   0  -5  -3   17.45    7.33
   0   5  -3   17.80   10.82
   0   5  -3   15.31    7.99
   0  -5   3   13.38   10.61
   0  -5   3   27.16    8.75
   0   5   4  248.31  117.87
   0   5   4  357.56  118.62
   0   5   4  405.54   94.57
   0  -5  -4  406.43   94.31
   0   5  -4  270.78  118.99
   0  -5   4  247.20  118.81
   0  -5   4  355.78   94.38
   0   5   5 1294.67  688.91
   0   5   5 1934.11  689.75
   0   5   5 2206.87  553.90
   0  -5  -5 2155.50  553.71
   0   5  -5 1977.47  690.12
   0   5  -5 1870.39  553.68
   0  -5   5 1799.14  690.10
   0  -5   5 2422.89  553.95
   0   5   6  172.54   85.47
   0   5   6  232.17   86.40
   0   5   6  324.29   68.99
   0  -5  -6  238.31   68.17
   0   5  -6  187.36   86.50
   0   5  -6  233.17   68.39
   0  -5   6  202.27   87.04
   0  -5   6  327.35   69.07
   0   5   7  419.47  181.88
   0   5   7  440.48  182.87
   0   5   7  668.40  146.54
   0  -5  -7  501.04  145.69
   0   5  -7  392.33  182.83
   0   5  -7  517.57  145.89
   0  -5   7  443.75  183.34
   0  -5   7  679.90  146.60
   0   5   8   85.93   37.80
   0   5   8   96.36   40.05
   0   5   8  151.34   32.96
   0  -5  -8   72.41   30.10
   0   5  -8   77.99   38.84
   0   5  -8   95.28   30.99
   0  -5   8   90.02   40.20
   0  -5   8  146.43   32.97
   0   5   9  299.33  113.05
   0   5   9  268.78  114.25
   0   5   9  539.15   92.66
   0  -5  -9  259.65   90.06
   0   5  -9  277.73  113.94
   0   5  -9  185.59   90.01
   0  -5   9  265.10  114.65
   0  -5   9  509.01   92.37
   0   5  10  259.14  135.91
   0   5  10  652.86  112.89
   0   5 -10  282.17  136.91
   0  -5  10  561.59  111.27
   0   5  11 1279.96  645.96
   0   5  11 3194.54  522.25
   0   5 -11 1291.29  647.22
   0  -5  11 2821.93  521.64
   0   5  12   16.13   15.80
   0   5  12   16.33   35.36
   0   5 -12   15.48   20.05
   0  -5  12   30.66   27.48
   0   5  13   41.20   29.90
   0   5  13  117.45   47.78
   0   5 -13   54.28   32.26
   0  -5  13   95.92   44.88
   0   5  14    0.84   17.92
   0   5  14   25.40   47.23
   0   5 -14   13.93   18.90
   0  -5  14   21.99   43.90
   0   5  15  283.10  123.90
   0   5  15  631.87  126.09
   0  -5  15  263.22  125.09
   0  -6   0 3149.51 1167.64
   0   6   1   62.33   29.26
   0   6   1  109.46   23.11
   0  -6  -1   35.62   29.14
   0  -6  -1  128.97   23.09
   0   6  -1   77.96   30.02
   0   6  -1  120.48   22.99
   0  -6   1   62.74   29.82
   0  -6   1  118.95   23.26
   0   6   2  194.01   98.98
   0   6   2  365.86   79.27
   0  -6  -2  202.88   99.03
   0  -6  -2  395.55   79.26
   0   6  -2  298.43  100.05
   0   6  -2  355.47   79.08
   0  -6   2  181.06   99.47
   0  -6   2  385.26   79.22
   0   6   3   79.32   33.88
   0   6   3  118.43   27.38
   0  -6  -3   85.54   34.00
   0  -6  -3   69.72   26.59
   0   6  -3   94.96   35.42
   0   6  -3  115.67   27.01
   0  -6   3   61.65   34.66
   0  -6   3  121.18   27.25
   0   6   4  567.09  257.68
   0   6   4  774.78  258.45
   0   6   4  908.45  206.96
   0  -6  -4  854.96  206.88
   0   6  -4  670.10  258.81
   0   6  -4  723.02  206.73
   0  -6   4  503.89  258.38
   0   6   5  515.11  248.68
   0   6   5  748.68  249.59
   0   6   5  774.76  199.80
   0  -6  -5  809.34  199.60
   0   6  -5  706.59  250.18
   0   6  -5  650.23  199.52
   0  -6   5  494.23  249.54
   0  -6   5  862.18  199.84
   0   6   6 1661.26  745.98
   0   6   6 2031.06  746.82
   0   6   6 2360.14  599.89
   0  -6  -6 2247.12  599.62
   0   6  -6 2077.08  747.23
   0   6  -6 2184.79  599.65
   0  -6   6 1673.77  746.97
   0  -6   6 2456.92  599.93
   0   6   7  264.22  105.50
   0   6   7  287.21  106.58
   0   6   7  373.82   85.35
   0  -6  -7  281.07   84.37
   0   6  -7  224.40  106.50
   0   6  -7  306.13   84.56
   0  -6   7  209.98  106.70
   0  -6   7  357.02   85.04
   0   6   8  149.84   72.54
   0   6   8  187.80   73.79
   0   6   8  312.50   59.43
   0  -6  -8  193.94   57.84
   0   6  -8  167.88   73.63
   0   6  -8  195.39   58.07
   0  -6   8  137.68   74.09
   0  -6   8  292.54   59.41
   0   6   9    7.56    9.68
   0   6   9    0.76   11.44
   0   6   9   19.68   14.63
   0  -6  -9    3.43    8.17
   0   6  -9    5.27   11.61
   0   6  -9    7.50   11.77
   0  -6   9    4.42   10.96
   0  -6   9    0.37   17.00
   0   6  10 1760.80  881.78
   0   6  10 4111.48  710.74
   0   6 -10 1895.51  882.87
   0  -6  10 3648.78  710.56
   0   6  11  195.57  106.45
   0   6  11  461.86   89.84
   0   6 -11  251.74  108.47
   0  -6  11  465.02   89.83
   0   6  12  121.62   67.82
   0   6  12  296.12   62.44
   0   6 -12  147.98   70.32
   0  -6  12  298.79   62.15
   0   6  13  214.17  109.32
   0   6  13  550.55   96.88
   0   6 -13  230.06  111.40
   0  -6  13  431.73   95.55
   0   6  14   25.20   22.90
   0   6  14   67.62   42.47
   0   6 -14   17.68   27.30
   0  -6  14   76.89   57.19
   0   6  15   -4.51   25.84
   0   6  15   -4.39   57.57
   0   6 -15   11.74   25.53
   0  -6  15   -5.66   28.72
   0   7   0    1.56    6.50
   0   7   0    4.90    3.36
   0  -7   0    1.56    3.39
   0  -7  -1 2829.50 1289.86
   0  -7   1 3228.39 1290.08
   0  -7   1 7290.93 1037.30
   0   7   2    0.91    4.92
   0   7   2    2.53    5.88
   0  -7  -2    1.54    3.74
   0  -7  -2    0.56    4.91
   0   7  -2    0.02    7.63
   0   7  -2    0.01    4.45
   0  -7   2    2.64    6.58
   0  -7   2   -0.84    4.55
   0   7   3   13.75    8.81
   0   7   3   20.77   10.10
   0  -7  -3   14.26    9.74
   0  -7  -3   29.20    8.20
   0   7  -3   21.53   11.32
   0  -7   3   13.07    9.39
   0  -7   3   28.11    7.61
   0   7   4   10.68    6.81
   0   7   4    8.01    6.75
   0   7   4    8.67    8.24
   0  -7  -4    6.84    7.41
   0  -7  -4    5.46    7.63
   0   7  -4    5.52    8.33
   0  -7   4    6.38    8.01
   0  -7   4    9.46    8.37
   0   7   5 4144.42 2061.42
   0   7   5 6532.09 2062.27
   0   7   5 7301.47 1658.30
   0  -7  -5 7491.65 1658.14
   0   7  -5 4953.26 2062.56
   0  -7   5 3846.90 2062.17
   0  -7   5 6508.81 1658.21
   0   7   6  861.44  423.23
   0   7   6 1045.42  424.20
   0   7   6 1425.18  340.38
   0  -7  -6 1376.79  340.02
   0   7  -6 1110.90  424.76
   0   7  -6 1269.38  340.06
   0  -7   6  842.90  424.14
   0  -7   6 1723.69  340.54
   0   7   7  160.97   82.23
   0   7   7  194.36   83.35
   0   7   7  322.52   66.86
   0  -7  -7  229.96   65.93
   0   7  -7  188.23   83.67
   0   7  -7  249.95   66.18
   0  -7   7  157.42   83.34
   0  -7   7  378.69   67.23
   0   7   8   71.96   31.58
   0   7   8   72.90   33.37
   0   7   8  129.03   27.85
   0  -7  -8   66.79   25.95
   0   7  -8   63.84   33.87
   0  -7   8   55.97   32.90
   0  -7   8  151.55   29.24
   0   7   9    1.69    7.84
   0   7   9    5.30   10.32
   0   7   9    0.55   17.13
   0  -7  -9    1.35    8.11
   0   7  -9   -0.93   10.41
   0   7  -9   -1.41   11.55
   0  -7   9   -1.58    9.78
   0  -7   9    0.23   17.27
   0   7  10   -2.08   12.57
   0   7  10   13.91   25.71
   0   7 -10   -1.76   14.18
   0  -7  10   11.51   17.57
   0   7  11 1477.32  772.53
   0   7  11 3953.78  624.35
   0   7 -11 1663.81  773.90
   0  -7  11 3373.50  623.72
   0   7  12  590.44  299.47
   0   7  12 1520.54  246.24
   0   7 -12  657.25  301.29
   0  -7  12 1208.47  245.08
   0   7  13   49.66   36.02
   0   7  13  178.64   52.48
   0   7 -13   62.77   39.86
   0  -7  13  151.04   48.05
   0   7  14  130.04   64.87
   0   7  14  305.17   74.51
   0   7 -14  105.35   66.79
   0  -7  14  276.18   73.21
   0   7  15  392.69  136.96
   0   8   1 1225.97  610.51
   0   8   1 2332.12  490.59
   0  -8  -1 1013.13  610.45
   0  -8  -1 2570.46  490.59
   0   8  -1 1666.70  610.98
   0   8  -1 2815.34  490.53
   0   8  -1 2574.00  490.58
   0  -8   1  922.15  610.60
   0   8   2  417.89  183.13
   0  -8  -2  419.55  183.16
   0  -8  -2  830.36  146.82
   0   8  -2  548.40  183.96
   0  -8   2  318.24  183.43
   0  -8   2  668.88  146.73
   0   8   3  139.27   68.07
   0   8   3  264.24   54.70
   0  -8  -3  148.95   68.28
   0  -8  -3  260.05   54.56
   0   8  -3  164.24   69.24
   0   8  -3  221.78   54.31
   0  -8   3  109.83   68.55
   0  -8   3  302.79   54.81
   0   8   4  512.34  238.19
   0   8   4  794.70  191.27
   0  -8  -4  600.05  238.38
   0  -8  -4  849.63  191.23
   0   8  -4  543.85  239.38
   0   8  -4  769.88  191.16
   0  -8   4  435.16  238.80
   0  -8   4  971.62  191.37
   0   8   5  541.60  242.39
   0   8   5  691.46  243.21
   0   8   5  831.23  194.77
   0  -8  -5  835.18  194.55
   0   8  -5  576.62  243.67
   0   8  -5  618.53  194.44
   0  -8   5  458.70  243.06
   0  -8   5  893.16  194.86
   0   8   6 3590.82 1568.12
   0   8   6 4485.08 1569.03
   0   8   6 5338.51 1261.47
   0  -8  -6 5070.53 1261.15
   0   8  -6 4080.10 1569.46
   0   8  -6 4219.98 1261.10
   0  -8   6 2722.52 1568.89
   0  -8   6 5728.91 1261.53
   0   8   7  202.33   98.54
   0   8   7  269.97   99.84
   0   8   7  359.63   80.14
   0  -8  -7  288.33   78.99
   0   8  -7  266.02  100.56
   0   8  -7  265.80   79.02
   0  -8   7  172.61   99.45
   0  -8   7  408.75   80.18
   0   8   8  103.41   50.20
   0   8   8  135.94   51.71
   0   8   8  217.26   42.12
   0  -8  -8  130.13   40.10
   0   8  -8  113.25   51.75
   0   8  -8  133.57   41.05
   0  -8   8   81.79   51.17
   0  -8   8  218.74   42.98
   0   8   9  200.83   84.25
   0   8   9  192.64   85.84
   0   8   9  414.51   69.97
   0   8  -9  199.04   85.74
   0   8  -9  191.74   67.66
   0  -8   9  128.17   85.27
   0  -8   9  409.74   71.02
   0   8  10  541.18  266.07
   0   8  10 1176.81  215.93
   0   8 -10  624.40  267.71
   0  -8  10 1032.07  216.04
   0   8  11   31.06   23.02
   0   8  11  106.55   31.38
   0   8 -11   32.04   28.00
   0  -8  11   84.23   29.16
   0   8  12   31.81   22.04
   0   8  12   79.38   33.88
   0   8 -12   26.66   25.22
   0  -8  12   70.42   36.24
   0   8  13    5.04   20.34
   0   8  13   21.85   36.22
   0   8 -13    2.10   21.61
   0  -8  13   46.25   49.80
   0   8  14   -2.54   20.83
   0   8  14   18.69   43.55
   0   8 -14   10.31   28.57
   0  -8  14   14.16   53.65
   0   9   0   -0.54    7.18
   0   9   0    0.18    3.55
   0   9   0    5.09    5.61
   0  -9   0    0.31    4.75
   0   9   1  788.12  384.71
   0   9   1 1518.33  308.88
   0   9   1 1842.96  309.18
   0  -9  -1  650.77  384.66
   0  -9  -1 1633.68  308.87
   0   9  -1 1140.22  385.23
   0   9  -1 1689.84  308.89
   0  -9   1  669.90  384.78
   0   9   2  658.77  303.43
   0   9   2 1210.20  243.65
   0  -9  -2  714.28  303.47
   0   9  -2  818.55  304.23
   0   9  -2 1319.60  243.58
   0  -9   2  560.32  303.69
   0  -9   2 1371.17  243.63
   0   9   3  104.68   47.86
   0   9   3  175.32   38.67
   0  -9  -3  118.40   47.98
   0  -9  -3  164.30   37.96
   0   9  -3  120.11   49.43
   0  -9   3   90.73   48.39
   0  -9   3  171.85   38.05
   0   9   4 2484.43 1303.33
   0   9   4 4593.34 1048.30
   0  -9  -4 3491.58 1303.58
   0  -9  -4 5123.57 1048.21
   0   9  -4 3160.83 1304.60
   0   9  -4 4190.74 1048.13
   0  -9   4 2048.44 1303.82
   0  -9   4 5241.82 1048.37
   0   9   5 1665.89  773.07
   0   9   5 2453.46  774.06
   0   9   5 2717.99  621.74
   0  -9  -5 2589.30  621.47
   0   9  -5 1807.77  774.36
   0   9  -5 2211.03  621.43
   0  -9   5 1288.86  773.59
   0  -9   5 2877.78  621.74
   0   9   6  100.91   45.10
   0   9   6  131.69   46.12
   0   9   6  173.83   37.62
   0  -9  -6  135.53   36.20
   0   9  -6   95.64   47.00
   0   9  -6  119.42   36.52
   0  -9   6   61.54   45.87
   0  -9   6  154.82   37.36
   0   9   7   44.12   21.18
   0   9   7   49.04   22.27
   0   9   7   58.31   19.52
   0  -9  -7   45.73   17.63
   0   9  -7   62.13   29.14
   0   9  -7   60.16   18.74
   0  -9   7   32.23   22.31
   0  -9   7   62.63   19.59
   0   9   8    5.02    8.34
   0   9   8    4.09    9.66
   0   9   8   -1.14   15.06
   0  -9  -8    2.43    8.13
   0   9  -8   -1.40   11.12
   0   9  -8   13.77   12.69
   0  -9   8   -2.64    9.38
   0  -9   8    4.77   16.15
   0   9   9  236.84  102.39
   0   9   9  421.65   84.68
   0   9  -9  243.57  103.99
   0   9  -9  210.25   82.12
   0  -9   9  404.64   84.45
   0   9  10 1090.39  513.91
   0   9  10 2454.85  415.44
   0   9 -10 1094.36  515.35
   0  -9  10 1931.38  414.78
   0   9  11  728.10  358.85
   0   9  11 1731.98  291.57
   0   9 -11  724.76  360.28
   0  -9  11 1580.39  292.31
   0   9  12   28.19   21.98
   0   9  12   57.40   33.15
   0   9 -12   19.61   23.00
   0  -9  12   62.90   37.40
   0   9  13   31.89   27.11
   0   9  13  114.85   42.33
   0   9 -13   38.06   30.17
   0  -9  13   58.83   48.77
   0   9  14    0.05   26.14
   0   9  14   44.35   52.54
   0   9 -14   28.52   32.58
   0  -9  14   41.70   61.05
   0  10   0   95.14   37.33
   0  10   0  165.00   28.81
   0  10   0  163.01   29.10
   0 -10   0   40.32   36.66
   0  10   1  962.31  488.04
   0  10   1 1981.59  392.02
   0  10   1 2278.86  392.30
   0 -10  -1  825.57  487.99
   0  10  -1 1353.10  488.56
   0  10  -1 2114.42  391.91
   0  10  -1 2099.74  392.03
   0 -10   1  757.50  488.04
   0 -10   1 2291.92  392.11
   0  10   2    3.01    5.14
   0 -10  -2    5.60    6.46
   0 -10  -2   12.24    4.65
   0  10  -2    5.97    8.32
   0  10  -2   11.37    4.96
   0 -10   2    6.01    6.28
   0 -10   2    7.55    6.06
   0  10   3  105.31   47.83
   0  10   3  156.83   38.56
   0 -10  -3  100.90   47.91
   0 -10  -3  199.27   38.17
   0  10  -3  125.95   49.39
   0  10  -3  167.37   37.96
   0 -10   3   70.28   48.13
   0 -10   3  161.74   38.01
   0  10   4  212.84  109.77
   0  10   4  379.40   88.26
   0 -10  -4  303.52  110.07
   0 -10  -4  418.63   87.95
   0  10  -4  261.84  111.25
   0  10  -4  359.69   87.94
   0 -10   4  153.25  110.17
   0 -10   4  448.43   88.34
   0  10   5  499.60  248.79
   0  10   5  844.26  249.92
   0  10   5  913.86  200.08
   0 -10  -5  720.84  249.20
   0 -10  -5  831.19  199.72
   0  10  -5  527.20  250.12
   0  10  -5  661.20  199.65
   0 -10   5  374.77  249.32
   0 -10   5  943.24  200.08
   0  10   6    2.54    8.45
   0  10   6    3.48    7.63
   0  10   6    6.72   12.11
   0 -10  -6    2.42    6.99
   0  10  -6    3.08   11.55
   0  10  -6    6.67    9.83
   0 -10   6    3.50    7.97
   0 -10   6    1.99    8.83
   0  10   7  154.58   60.98
   0  10   7  174.70   62.12
   0  10   7  236.07   50.12
   0 -10  -7  123.63   48.42
   0  10  -7  152.34   64.31
   0  10  -7  175.18   49.07
   0 -10   7   98.88   61.73
   0 -10   7  245.17   50.30
   0  10   8  434.84  161.80
   0  10   8  459.12  163.19
   0  10   8  682.39  131.12
   0 -10  -8  388.94  129.39
   0  10  -8  453.61  163.43
   0  10  -8  463.26  129.97
   0 -10   8  259.21  162.58
   0  10   9  341.74  142.48
   0  10   9  598.88  116.55
   0  10  -9  337.50  144.04
   0  10  -9  266.65  114.25
   0 -10   9  600.54  116.45
   0  10  10  501.12  234.93
   0  10  10 1119.47  192.08
   0  10 -10  476.58  236.50
   0 -10  10  878.77  191.05
   0  10  11   -3.67   14.73
   0  10 -11    1.08   15.73
   0 -10  11   -8.25   36.93
   0  10  12   42.12   26.53
   0  10  12   75.09   37.25
   0  10 -12   36.34   30.63
   0 -10  12   89.12   50.26
   0  10  13   14.00   19.85
   0  10  13    7.61   39.02
   0  10 -13   12.63   22.33
   0 -10  13   21.72   51.18
   0  10  14  234.82  114.19
   0  10  14  562.51  109.52
   0  10 -14  253.55  117.55
   0 -10  14  354.77  112.62
   0  11   0    3.22    8.07
   0  11   0    0.54    5.58
   0 -11   0   -1.18    4.99
   0  11   1  323.38  142.51
   0  11   1  610.23  113.96
   0  11   1  680.36  114.24
   0 -11  -1  226.71  142.34
   0 -11  -1  468.87  113.77
   0  11  -1  439.71  143.10
   0  11  -1  690.64  114.00
   0 -11   1  234.41  142.41
   0  11   2  104.39   48.52
   0  11   2  179.52   38.69
   0  11   2  222.02   39.35
   0 -11  -2  105.83   48.62
   0 -11  -2  198.87   38.40
   0  11  -2   97.92   49.47
   0  11  -2  196.69   38.51
   0 -11   2   71.93   48.74
   0  11   3  231.22  110.08
   0  11   3  409.53   88.38
   0 -11  -3  276.83  110.18
   0 -11  -3  435.34   88.07
   0  11  -3  291.64  111.46
   0 -11   3  179.96  110.33
   0 -11   3  408.40   88.07
   0  11   4    5.23    7.00
   0  11   4   24.61    9.39
   0 -11  -4    4.04    6.51
   0 -11  -4    3.17    7.09
   0  11  -4    3.00    9.61
   0  11  -4    1.93    6.67
   0 -11   4    4.23    7.34
   0 -11   4    6.46    6.43
   0  11   5  295.33  140.68
   0  11   5  508.75  113.24
   0 -11  -5  405.09  141.07
   0 -11  -5  477.44  112.81
   0  11  -5  337.32  142.20
   0  11  -5  371.59  112.71
   0 -11   5  207.01  141.13
   0 -11   5  615.58  113.42
   0  11   6  312.58  144.17
   0  11   6  491.30  145.52
   0  11   6  524.83  116.43
   0 -11  -6  420.27  115.59
   0  11  -6  381.50  146.02
   0  11  -6  439.67  115.73
   0 -11   6  185.83  144.70
   0 -11   6  551.96  116.43
   0  11   7    5.32    8.93
   0  11   7    9.20    9.07
   0  11   7   16.11   12.76
   0 -11  -7    4.23    7.73
   0  11  -7    0.79   19.46
   0  11  -7    8.77    9.27
   0 -11   7    1.62    8.21
   0 -11   7    4.32   10.97
   0  11   8   20.60   12.01
   0  11   8   12.64   13.05
   0  11   8   31.10   15.14
   0 -11  -8   10.61    9.87
   0  11  -8   19.62   21.54
   0 -11   8   10.12   13.63
   0 -11   8   39.70   14.92
   0  11   9  754.46  281.03
   0  11   9 1189.86  227.45
   0  11  -9  716.19  282.75
   0  11  -9  443.24  225.22
   0 -11   9 1007.94  226.92
   0  11  10  132.58   64.65
   0  11  10  298.83   58.98
   0  11 -10  115.75   66.28
   0 -11  10  243.01   58.40
   0  11  11   64.34   38.67
   0  11  11  183.68   45.88
   0  11 -11   52.97   40.85
   0 -11  11  174.44   50.18
   0  11  12  246.36  119.20
   0  11  12  566.31  105.64
   0  11 -12  218.23  120.58
   0 -11  12  535.00  111.84
   0  11  13   -2.13   22.80
   0  11  13   -7.90   47.80
   0  11 -13    2.30   19.58
   0 -11  13   15.50   60.11
   0  11  14  108.83   57.11
   0  11  14  274.84   73.09
   0  11 -14  107.70   66.52
   0  12   0 1062.45  432.45
   0  12   0 1842.37  346.95
   0  12   0 1838.42  347.11
   0 -12   0  684.22  432.06
   0  12   1    2.16    7.52
   0  12   1    1.58    7.67
   0 -12  -1    0.84    5.70
   0  12  -1    5.51   10.05
   0  12  -1    2.88    3.30
   0  12  -1    0.24    5.29
   0 -12   1    2.50    6.77
   0  12   2  347.83  173.14
   0  12   2  595.65  138.74
   0  12   2  831.55  139.35
   0 -12  -2  313.63  173.12
   0 -12  -2  585.34  138.57
   0  12  -2  349.54  173.83
   0  12  -2  765.64  138.50
   0  12  -2  649.29  138.64
   0 -12   2  253.87  173.23
   0 -12   2  695.81  138.77
   0  12   3  583.31  273.06
   0  12   3 1056.11  219.41
   0 -12  -3  698.83  273.21
   0 -12  -3 1051.45  219.16
   0  12  -3  760.08  274.30
   0 -12   3  420.89  273.24
   0 -12   3 1118.56  219.27
   0  12   4    8.67    8.48
   0  12   4   15.80    9.41
   0 -12  -4    3.99    7.14
   0 -12  -4    6.87    7.03
   0  12  -4    9.10   10.23
   0  12  -4    8.49    7.04
   0 -12   4    6.75    7.10
   0  12   5  165.95   69.40
   0  12   5  269.87   56.00
   0 -12  -5  182.28   69.61
   0 -12  -5  233.24   55.41
   0  12  -5  152.68   71.01
   0  12  -5  176.80   55.35
   0 -12   5  114.19   69.79
   0 -12   5  240.11   55.72
   0  12   6  471.07  200.57
   0  12   6  668.94  201.83
   0  12   6  758.48  161.71
   0 -12  -6  591.95  160.85
   0  12  -6  494.31  202.33
   0  12  -6  565.48  160.96
   0 -12   6  241.66  200.90
   0 -12   6  852.83  161.96
   0  12   7   17.70   10.28
   0  12   7   23.85   14.45
   0  12   7   32.73   14.44
   0 -12  -7   15.39   11.20
   0  12  -7   19.26   19.19
   0  12  -7   28.65   13.01
   0 -12   7    9.18   11.96
   0 -12   7   27.04   15.61
   0  12   8   71.68   27.58
   0  12   8   69.83   29.77
   0 -12  -8   47.33   23.29
   0  12  -8  101.49   35.89
   0  12  -8   72.90   25.07
   0 -12   8   24.27   28.93
   0 -12   8  151.14   31.11
   0  12   9    3.38   11.33
   0  12   9   21.76   22.04
   0  12  -9   -0.12   15.89
   0 -12   9    5.06   24.38
   0  12  10  674.80  309.61
   0  12  10 1433.24  252.01
   0  12 -10  650.97  311.37
   0 -12  10 1193.06  252.19
   0  12  11   26.64   21.71
   0  12  11   55.19   36.56
   0  12 -11   11.33   21.80
   0 -12  11   46.72   43.06
   0  12  12    7.45   16.34
   0  12  12   35.84   41.58
   0  12 -12   -1.35   19.60
   0 -12  12    2.77   47.72
   0  12  13   43.17   28.60
   0  12  13  106.31   54.46
   0  12 -13   46.58   32.21
   0 -12  13   69.73   48.70
   0  12  14   29.42   30.30
   0  12  14   98.89   62.05
   0  12 -14   40.32   39.39
   0  13   0    0.63    9.15
   0  13   0   10.20    4.02
   0  13   0    2.70    6.06
   0 -13   0    1.20    5.52
   0  13   1   26.03   16.85
   0  13   1   50.46   12.08
   0  13   1   61.45   13.30
   0 -13  -1   25.58   15.17
   0 -13  -1   36.47   11.09
   0  13  -1   32.83   17.21
   0  13  -1  116.45   12.51
   0 -13   1   20.02   15.35
   0  13   2  206.76   82.02
   0  13   2  322.19   65.49
   0  13   2  422.01   66.27
   0 -13  -2  182.98   81.96
   0 -13  -2  212.87   65.01
   0  13  -2  192.65   82.76
   0  13  -2  391.71   65.35
   0 -13   2  130.43   82.00
   0  13   3   24.37   12.30
   0  13   3   49.25   11.06
   0 -13  -3   20.89   12.89
   0 -13  -3   35.69   10.08
   0  13  -3   29.68   16.22
   0 -13   3   18.96   12.81
   0 -13   3   41.98   11.22
   0  13   4   30.79   15.75
   0  13   4   43.20   13.88
   0 -13  -4   39.35   15.83
   0 -13  -4   46.62   12.66
   0  13  -4   27.40   17.73
   0  13  -4   44.85   13.63
   0 -13   4   19.50   15.92
   0 -13   4   44.90   13.05
   0  13   5 2031.78  829.12
   0  13   5 3231.74  666.97
   0 -13  -5 2390.98  829.42
   0 -13  -5 2560.75  666.42
   0  13  -5 1911.35  830.54
   0 -13   5 1330.12  829.40
   0 -13   5 3124.56  666.80
   0  13   6  248.00  102.53
   0  13   6  339.18  103.74
   0  13   6  426.54   83.14
   0 -13  -6  223.35   81.79
   0  13  -6  265.34  104.39
   0  13  -6  316.53   82.29
   0 -13   6  161.31  102.99
   0 -13   6  378.41   82.85
   0  13   7  256.21   96.57
   0  13   7  384.78   98.65
   0 -13  -7  202.99   77.00
   0  13  -7  252.06   98.81
   0  13  -7  276.67   78.06
   0 -13   7  115.27   96.96
   0 -13   7  478.33   80.20
   0  13   8  123.79   53.98
   0  13   8  233.70   47.09
   0 -13  -8   91.45   45.47
   0  13  -8  166.48   59.19
   0 -13   8  225.79   49.42
   0  13   9  229.65  109.94
   0  13   9  456.60   91.82
   0  13  -9  261.61  112.25
   0 -13   9  409.21   93.27
   0  13  10    2.28   11.64
   0  13  10   -3.86   29.00
   0  13 -10   -0.52   16.44
   0 -13  10    3.61   33.88
   0  13  11 1882.08  774.14
   0  13 -11 1870.62  776.12
   0 -13  11 3471.74  627.16
   0  13  12  249.94  119.69
   0  13  12  619.59  105.48
   0  13 -12  222.01  121.53
   0 -13  12  473.47  109.05
   0  13  13   27.23   22.92
   0  13  13   71.49   45.53
   0  13 -13   28.79   27.07
   0 -13  13   35.15   58.00
   0  13  14   15.47   27.79
   0  13  14   86.48   63.04
   0  13 -14   19.07   33.90
   0  14   0 2908.78 1054.09
   0  14   0 3787.63  846.99
   0  14   0 4894.90  847.30
   0 -14   0 1820.45 1053.60
   0  14   1  591.37  231.80
   0  14   1  868.44  185.59
   0  14   1 1080.71  185.96
   0 -14  -1  369.78  231.39
   0  14  -1  560.61  232.11
   0  14  -1 1059.50  185.41
   0  14  -1 1080.58  185.70
   0 -14   1  333.07  231.43
   0  14   2    3.74    7.24
   0  14   2    4.38    7.64
   0  14   2    9.46    8.02
   0 -14  -2    3.01    6.58
   0  14  -2    0.34    8.60
   0  14  -2    8.75    5.39
   0 -14   2    1.42    6.71
   0  14   3    4.82    6.21
   0  14   3   -2.38    9.06
   0  14   3    1.61    7.64
   0 -14  -3    1.97    6.76
   0 -14  -3    4.82    5.64
   0  14  -3   -0.12   10.81
   0  14  -3    2.34    8.58
   0 -14   3   -1.52    7.23
   0 -14   3    7.75    7.21
   0  14   4  252.58  103.26
   0  14   4  414.58   83.05
   0 -14  -4  273.31  103.43
   0 -14  -4  287.34   82.38
   0  14  -4  247.04  104.57
   0  14  -4  384.10   82.75
   0 -14   4  157.13  103.38
   0 -14   4  405.32   82.91
   0  14   5  161.04   56.08
   0 -14  -5  143.69   56.20
   0 -14  -5  157.89   44.36
   0  14  -5  145.69   57.83
   0  14  -5  130.75   44.62
   0 -14   5   89.00   56.17
   0 -14   5  236.26   45.96
   0  14   6 1164.61  435.53
   0  14   6 1448.87  436.75
   0  14   6 1780.14  350.70
   0 -14  -6  803.60  435.70
   0 -14  -6 1468.31  349.87
   0  14  -6  997.46  437.04
   0  14  -6 1227.73  349.73
   0 -14   6  765.63  435.90
   0  14   7  956.75  357.01
   0  14   7 1165.73  358.47
   0  14   7 1504.91  287.97
   0 -14  -7  984.74  286.63
   0  14  -7  884.65  358.71
   0  14  -7 1022.70  286.71
   0 -14   7  496.08  357.28
   0  14   8   56.52   24.50
   0  14  -8   60.57   33.17
   0  14  -8   37.99   22.79
   0 -14   8   79.81   27.87
   0  14   9  212.83   96.59
   0  14   9  371.73   80.33
   0  14  -9  220.37   99.48
   0 -14   9  354.96   83.11
   0  14  10 1117.69  492.96
   0  14  10 2272.75  399.27
   0  14 -10  995.92  494.77
   0 -14  10 1849.85  399.78
   0  14  11  492.80  230.10
   0  14  11 1250.82  190.86
   0  14 -11  434.68  232.14
   0 -14  11  823.46  190.94
   0  14  12   87.09   43.51
   0  14  12  208.12   52.03
   0  14 -12   73.22   46.62
   0 -14  12  120.26   61.45
   0  14  13  372.24  167.98
   0  14  13  983.70  148.29
   0  14 -13  346.17  170.48
   0  15   0    2.69   10.30
   0  15   0    1.94    4.57
   0  15   0    1.77    7.06
   0 -15   0   -2.19    6.33
   0  15   1 2660.01  784.70
   0  15   1 4836.14  631.02
   0 -15  -1 1572.25  784.21
   0  15  -1 2051.60  784.89
   0 -15   1 1519.38  784.24
   0  15   2  171.98   63.20
   0  15   2  243.02   50.38
   0 -15  -2  129.72   62.83
   0 -15  -2  273.23   50.14
   0  15  -2  130.64   63.73
   0 -15   2   93.90   62.79
   0  15   3    4.40    7.90
   0  15   3    7.71   10.28
   0  15   3   17.90   14.09
   0 -15  -3    2.47    7.39
   0 -15  -3   10.29    7.47
   0  15  -3    5.33   11.84
   0 -15   3    4.37    8.05
   0  15   4  469.19  203.26
   0  15   4  695.33  163.33
   0  15   4  903.17  164.45
   0 -15  -4  462.15  203.42
   0 -15  -4  822.02  163.09
   0  15  -4  455.41  204.55
   0 -15   4  252.15  203.29
   0 -15   4  755.13  163.29
   0  15   5 1718.41  710.41
   0  15   5 2701.78  571.51
   0 -15  -5 1848.06  710.68
   0 -15  -5 2481.14  571.06
   0  15  -5 1648.54  711.92
   0  15  -5 2256.98  570.88
   0 -15   5  923.26  710.47
   0 -15   5 2712.32  571.26
   0  15   6 1343.64  492.09
   0  15   6 1512.29  493.24
   0  15   6 1957.07  396.21
   0 -15  -6 1388.26  492.48
   0 -15  -6 1375.50  395.27
   0  15  -6 1040.74  493.61
   0  15  -6 1299.85  395.14
   0 -15   6  657.91  492.26
   0 -15   6 1917.24  396.03
   0  15   7  567.82  200.45
   0  15   7  851.89  162.23
   0 -15  -7  391.42  160.53
   0  15  -7  503.20  202.39
   0  15  -7  561.23  161.01
   0  15   8  147.22   56.95
   0  15   8  188.66   47.91
   0  15  -8  152.72   63.96
   0  15  -8   90.52   47.04
   0 -15   8  197.11   49.78
   0  15   9    9.79   12.44
   0  15   9   21.68   21.21
   0  15  -9   11.55   25.63
   0  15  10  151.54   67.09
   0  15  10  300.69   60.95
   0  15 -10  121.25   69.30
   0 -15  10  203.24   65.08
   0  15  11  538.24  213.70
   0  15 -11  506.55  216.44
   0 -15  11  818.17  182.72
   0  15  12  995.40  411.76
   0  15  12 2039.20  337.70
   0  15 -12  784.10  413.60
   0 -15  12 1353.51  339.57
   0  15  13    4.85   22.42
   0  15  13   12.32   54.53
   0  15 -13    1.58   27.26
   0  16   0 1858.27  619.24
   0  16   0 3107.91  497.34
   0 -16   0 1154.11  618.56
   0  16   1 1885.15  542.01
   0  16   1 3481.19  435.78
   0 -16  -1  951.23  541.32
   0  16  -1 1472.29  542.11
   0 -16   1 1095.00  541.32
   0  16   2  596.10  200.53
   0  16   2  799.33  160.70
   0  16   2 1037.96  161.41
   0 -16  -2  445.18  200.22
   0  16  -2  495.08  201.06
   0 -16   2  336.92  200.16
   0  16   3  716.26  284.13
   0  16   3 1074.53  228.24
   0  16   3 1332.12  228.92
   0 -16  -3  543.40  284.01
   0 -16  -3 1161.71  227.93
   0  16  -3  716.95  285.16
   0 -16   3  412.07  283.97
   0  16   4  525.19  207.60
   0  16   4  916.77  167.86
   0 -16  -4  460.22  207.60
   0 -16  -4  738.12  166.42
   0  16  -4  524.12  209.04
   0  16  -4  765.85  166.44
   0 -16   4  275.43  207.55
   0 -16   4  728.88  166.36
   0  16   5  807.05  305.48
   0  16   5 1209.72  245.98
   0 -16  -5  904.28  305.89
   0 -16  -5  984.16  245.15
   0  16  -5  796.28  307.36
   0  16  -5  928.10  245.11
   0 -16   5  363.70  305.46
   0  16   6  827.25  306.06
   0  16   6 1294.35  246.94
   0 -16  -6  929.94  306.68
   0 -16  -6  813.06  245.74
   0  16  -6  727.28  307.82
   0  16  -6  911.74  245.71
   0 -16   6  346.77  306.09
   0 -16   6 1236.35  246.52
   0  16   7  614.47  213.07
   0  16   7  884.32  172.58
   0 -16  -7  334.69  170.41
   0  16  -7  579.53  215.19
   0 -16   7  862.30  172.73
   0  16   8   83.41   38.44
   0  16   8  130.19   36.04
   0  16  -8   98.05   44.47
   0  16   9  760.48  319.98
   0  16   9 1226.14  259.74
   0  16  -9  758.30  322.84
   0 -16   9 1030.10  260.14
   0  16  10  123.91   52.74
   0  16  10  235.75   55.55
   0  16 -10   89.45   56.03
   0 -16  10  132.60   53.82
   0  16  11   28.97   20.04
   0  16  11   72.62   43.66
   0  16 -11   29.22   28.53
   0 -16  11    9.72   50.84
   0  16  12   34.62   24.75
   0  16  12   87.62   54.47
   0  16 -12   42.55   29.83
   0 -16  12   43.94   63.84
   0  16  13   -8.29   22.54
   0  16  13  -11.30   69.27
   0  16 -13   -5.02   26.89
   0  17   0   -1.50   11.35
   0  17   0    3.06    7.92
   0 -17   0    1.79    6.74
   0  17   1   31.57   14.88
   0  17   1   52.95   14.40
   0 -17  -1   16.91   11.87
   0  17  -1   29.45   13.82
   0 -17   1   12.55   11.73
   0  17   2  731.56  239.21
   0  17   2 1101.87  192.25
   0  17   2 1200.26  192.32
   0 -17  -2  471.11  238.71
   0  17  -2  638.28  239.75
   0 -17   2  380.90  238.67
   0  17   3   85.01   30.52
   0  17   3  107.35   24.52
   0  17   3  117.82   26.06
   0 -17  -3   47.66   30.14
   0 -17  -3  105.63   24.12
   0  17  -3   77.51   32.55
   0 -17   3   37.81   29.97
   0  17   4 1969.15  728.96
   0  17   4 2835.81  586.29
   0  17   4 3257.77  586.91
   0 -17  -4 1750.71  729.05
   0 -17  -4 2544.56  585.67
   0  17  -4 1902.67  730.24
   0 -17   4  864.44  728.70
   0  17   5   25.38   11.49
   0  17   5   31.91   15.19
   0  17   5   25.07   19.08
   0 -17  -5   20.82   14.41
   0 -17  -5   19.86   12.09
   0  17  -5   20.03   15.81
   0  17  -5   24.89   12.47
   0 -17   5   10.60   12.30
   0 -17   5   27.61   15.50
   0  17   6   60.31   23.52
   0  17   6   88.32   24.27
   0 -17  -6   38.16   20.33
   0  17  -6   42.71   26.12
   0  17  -6   59.60   22.13
   0 -17   6   67.91   21.85
   0  17   7   32.98   14.35
   0  17   7   32.84   20.20
   0  17  -7   18.69   19.85
   0  17  -7   14.35   16.05
   0 -17   7   27.55   20.64
   0  17   8   13.03   12.59
   0  17   8   22.01   24.06
   0  17  -8   17.62   25.45
   0 -17   8   15.49   26.61
   0  17   9  787.24  328.32
   0  17   9 1388.04  267.13
   0  17  -9  729.34  331.04
   0 -17   9  960.25  266.31
   0  17  10  831.71  308.39
   0  17 -10  724.70  310.58
   0 -17  10  962.00  253.44
   0  17  11    4.99   14.43
   0  17  11   25.74   46.01
   0  17 -11   -9.34   21.10
   0 -17  11    7.90   54.36
   0  17  12   34.80   22.83
   0  17  12   66.66   52.66
   0  17 -12   23.95   28.23
   0  17  13   17.66   24.89
   0  17 -13   10.56   30.44
   0  18   0  949.51  262.59
   0 -18   0  532.84  261.57
   0  18   1  248.66   73.53
   0  18   1  422.03   59.19
   0 -18  -1  114.67   72.18
   0  18  -1  214.79   73.39
   0 -18   1  140.38   72.29
   0  18   2    8.55   11.05
   0  18   2    5.25   14.24
   0 -18  -2    2.28    7.92
   0  18  -2    2.64   10.39
   0 -18   2    0.19    7.32
   0  18   3   40.65   16.63
   0  18   3   55.39   16.92
   0 -18  -3   18.23   15.26
   0  18  -3   33.89   19.84
   0 -18   3   21.63   15.10
   0  18   4  203.86   74.99
   0  18   4  341.13   61.97
   0  18   4  326.99   61.97
   0 -18  -4  137.57   75.17
   0 -18  -4  253.96   59.84
   0  18  -4  214.67   76.91
   0 -18   4   87.15   74.59
   0  18   5   92.56   38.18
   0  18   5  147.62   34.60
   0  18   5  119.82   34.48
   0 -18  -5   81.21   30.42
   0  18  -5   81.59   40.62
   0  18  -5   84.20   31.73
   0  18   6  318.49  114.24
   0  18   6  535.80   94.72
   0  18   6  298.21   93.66
   0 -18  -6  178.03   91.11
   0  18  -6  328.78  117.26
   0 -18   6  381.07   93.58
   0  18   7   38.03   22.38
   0  18   7   83.47   32.04
   0  18  -7   49.42   27.25
   0  18   8  393.18  162.53
   0  18   8  743.51  134.74
   0  18  -8  344.34  164.91
   0 -18   8  401.89  132.69
   0  18   9  120.44   52.71
   0  18   9  204.36   53.29
   0  18  -9  116.30   59.75
   0  18  10  130.84   50.32
   0  18  10  236.09   58.20
   0  18 -10   95.46   53.97
   0 -18  10   35.17   53.46
   0  18  11    7.39   15.43
   0  18  11   -5.59   48.94
   0  18 -11    0.67   21.32
   0 -18  11    0.14   51.52
   0  18  12   21.45   23.41
   0  18  12    9.27   66.08
   0  18 -12   18.15   36.40
   0  19   0   -3.62   13.04
   0 -19   0    1.04    8.29
   0  19   1  300.36   82.28
   0  19   1  391.04   65.88
   0 -19  -1  136.84   81.02
   0  19  -1  226.55   82.14
   0 -19   1  142.19   80.85
   0  19   2  204.35   63.73
   0  19   2  265.24   51.41
   0  19   2  291.40   50.99
   0 -19  -2  103.53   62.08
   0  19  -2  177.02   63.67
   0 -19   2   91.53   62.12
   0  19   3  189.91   63.02
   0  19   3  290.12   52.17
   0 -19  -3  100.73   62.12
   0 -19  -3  223.01   50.11
   0  19  -3  200.08   64.49
   0 -19   3   74.95   61.94
   0  19   4  407.84  126.17
   0  19   4  614.18  102.99
   0  19   4  497.61  102.21
   0 -19  -4  226.97  125.98
   0 -19  -4  349.25  100.46
   0  19  -4  407.45  127.85
   0 -19   4  148.14  125.51
   0  19   5  839.99  313.77
   0  19   5 1399.57  253.51
   0  19   5 1004.73  252.98
   0 -19  -5  569.40  251.28
   0  19  -5  982.61  316.13
   0  19   6   41.70   21.95
   0  19   6   59.53   27.60
   0  19  -6   38.82   25.58
   0  19   7    6.44    9.81
   0  19   7   21.73   29.78
   0  19  -7   11.00   18.12
   0  19  -7   -0.15   23.56
   0 -19   7    3.57   24.95
   0  19   8   -1.37    9.90
   0  19   8   -0.85   26.97
   0  19  -8    5.86   17.72
   0  19   9  228.78   88.24
   0  19  -9  275.39   94.68
   0 -19   9  157.21   76.71
   0  19  10    3.26   12.94
   0  19  10   30.54   53.62
   0  19 -10    2.55   27.13
   0 -19  10   11.25   42.49
   0  19  11  274.27   87.04
   0  19  11   -8.85   90.48
   0  19 -11  209.60   90.61
   0  19  12   28.96   27.88
   0  19  12  -19.62   69.92
   0  19 -12   14.51   31.47
   0  20   0  391.50  103.74
   0 -20   0  196.20  102.02
   0  20   1  771.19  228.15
   0  20   1  992.56  182.49
   0  20   1 1305.97  183.11
   0 -20  -1  323.95  226.99
   0  20  -1  667.34  228.20
   0 -20   1  402.15  227.06
   0  20   2  312.31   84.84
   0  20   2  377.77   68.19
   0  20   2  417.14   68.34
   0 -20  -2  120.02   83.26
   0  20  -2  226.08   84.96
   0 -20   2  124.93   83.29
   0  20   3  436.20  190.40
   0  20   3  719.47  153.20
   0  20   3  558.67  152.93
   0  20  -3  449.82  191.31
   0  20   4   24.72   15.75
   0  20   4   44.33   21.44
   0 -20  -4   10.16   14.00
   0  20  -4   39.70   21.90
   0  20   5  260.49   82.95
   0  20   5  384.65   69.80
   0  20   5  177.95   67.74
   0 -20  -5  107.23   65.37
   0  20  -5  299.51   86.09
   0  20   6  288.83  119.15
   0  20   6  454.66   99.66
   0  20  -6  271.96  121.61
   0  20   7  139.35   58.26
   0  20   7  212.73   56.94
   0  20  -7  120.28   61.45
   0  20   8  121.43   41.02
   0  20  -8   76.50   45.23
   0 -20   8   57.90   48.32
   0  20   9  248.35   91.03
   0  20   9  408.88   85.68
   0  20  -9  211.54   96.82
   0 -20   9   95.88   78.72
   0  20  10  822.51  257.95
   0  20  10   29.18  211.77
   0  20 -10  704.82  261.40
   0  20  11   26.34   17.88
   0  20  11   11.36   67.09
   0  20 -11   13.27   26.04
   0  20  12   54.38   33.43
   0  20 -12   13.19   36.38
   0  21   0   -0.34   13.07
   0  21   1   23.33   17.61
   0  21  -1   21.82   15.85
   0  21   2  262.32   98.70
   0  21   2  307.35   79.12
   0  21  -2  217.47   99.16
   0  21   3   40.91   21.45
   0  21   3   42.90   22.14
   0  21   3   35.67   19.49
   0  21  -3   47.14   25.86
   0  21   4  346.04  132.69
   0  21   4  439.00  107.80
   0  21   4  300.99  107.18
   0  21  -4  333.33  134.72
   0  21   5  743.17  296.52
   0  21   5 1039.06  239.78
   0  21  -5  725.68  298.49
   0  21   6 1156.23  465.25
   0  21   6 1789.71  376.32
   0  21  -6 1084.41  467.33
   0  21   7   78.85   35.48
   0  21   7  112.83   44.85
   0  21  -7   65.15   38.85
   0  21   8  193.00   78.29
   0  21   8  316.64   77.23
   0  21  -8  144.13   80.97
   0  21   9  277.38   90.10
   0  21  -9  259.75   96.95
   0 -21   9   66.31   80.49
   0  21  10  112.62   41.89
   0  21  10    3.97   69.58
   0  21 -10  106.25   53.63
   0  21  11 1145.65  353.67
   0  21  11    5.07  287.51
   0  21 -11  902.61  357.28
   0  22   0  704.00  264.06
   0  22   1  854.57  289.33
   0  22  -1  676.04  289.21
   0  22   2   75.18   32.80
   0  22   2   74.40   28.84
   0  22   2   85.91   30.36
   0  22  -2   67.12   33.17
   0  22   3   76.60   34.68
   0  22   3   95.83   32.39
   0  22   3   74.17   31.10
   0  22  -3   82.72   38.27
   0  22   4  306.58  121.46
   0  22   4  381.62   99.53
   0  22  -4  301.50  123.86
   0  22   5   -7.62   16.18
   0  22  -5    6.05   19.62
   0  22   6  430.41  175.60
   0  22   6  712.17  146.26
   0  22  -6  385.19  177.97
   0  22   7 1906.01  724.90
   0  22   7 2877.21  586.33
   0  22  -7 1475.15  726.82
   0  22   8   -1.10   15.25
   0  22   8   -4.56   49.67
   0  22  -8   -0.88   19.91
   0  22   9  399.64  126.02
   0  22   9  -25.31  113.41
   0  22  -9  335.68  130.37
   0  22  10  302.52   99.25
   0  22  10    3.98  101.62
   0  22 -10  260.24  105.93
   0  22  11  684.40  237.79
   0  22 -11  500.86  243.03
   0  23   0    6.53   13.86
   0  23   1  991.95  324.72
   0  23  -1  714.03  324.64
   0  23   2  774.53  249.21
   0  23  -2  516.47  249.14
   0  23   3    2.15   13.22
   0  23   3   -2.89   27.21
   0  23   3    2.50   23.62
   0  23  -3    0.74   19.80
   0  23   4  617.75  237.09
   0  23  -4  654.78  238.98
   0  23   5  261.62  103.79
   0  23   5  323.59   90.85
   0  23  -5  248.23  106.47
   0  23   6  885.15  337.79
   0  23   6 1178.78  275.43
   0  23  -6  769.32  340.13
   0  23   7  627.35  248.61
   0  23   7 1044.82  207.59
   0  23  -7  507.88  250.82
   0  23   8  432.12  130.71
   0  23   8   22.26  115.24
   0  23  -8  304.26  133.07
   0  23   9   18.73   19.87
   0  23   9    2.50   66.74
   0  23  -9   16.25   34.46
   0  23  10  235.40   90.02
   0  23 -10  196.53  103.16
   0  24   0   21.99   18.16
   0  24   1  828.60  274.93
   0  24  -1  625.22  274.54
   0  24   2  622.84  204.32
   0  24  -2  423.10  204.37
   0  24   3  833.46  359.18
   0  24   3 1188.56  290.35
   0  24  -3 1026.08  360.73
   0  24   4  243.28  102.18
   0  24   4  341.07   89.27
   0  24  -4  258.60  104.60
   0  24   5  510.60  205.33
   0  24   5  652.56  170.15
   0  24  -5  541.27  208.14
   0  24   6   55.29   25.75
   0  24   6   16.04   39.85
   0  24  -6   46.54   30.34
   0  24   7  276.58   87.90
   0  24   7    9.18   84.92
   0  24  -7  215.03   90.11
   0  24   8    4.59   21.83
   0  24   8   10.49   64.48
   0  24  -8    6.30   22.81
   0  24   9  506.35  158.39
   0  24   9    1.52  136.18
   0  24  -9  402.03  163.47
   0  24  10   12.41   24.21
   0  24 -10    3.75   64.98
   0  25   0    8.35   19.31
   0  25   1   69.76   32.79
   0  25  -1   60.02   31.64
   0  25   2  499.09  175.51
   0  25  -2  408.10  175.21
   0  25  -3  217.70   89.31
   0  25   4  426.79  177.67
   0  25   4  409.69  146.28
   0  25  -4  574.11  180.36
   0  25   5  210.86   86.99
   0  25   5  184.13   78.17
   0  25  -5  264.09   90.97
   0  25   6    5.98   17.92
   0  25   6   27.50   43.42
   0  25  -6    8.06   22.13
   0  25   7   -4.28   17.63
   0  25   7    9.48   63.60
   0  25  -7  -11.40   22.11
   0  25   8   78.29   35.07
   0  25  -8   48.48   38.51
   0  25   9  650.72  228.06
   0  25  -9  489.97  235.28
   0  26   0  994.25  372.85
   0  26   1   32.76   21.99
   0  26  -1   29.45   24.34
   0  26   2   25.95   24.63
   0  26  -2   20.52   20.72
   0  26   3   10.14   22.91
   0  26  -3    9.70   24.29
   0  26   4   34.09   25.97
   0  26   4   76.84   59.71
   0  26  -4   48.75   30.26
   0  26   5   30.76   21.94
   0  26   5   16.83   63.24
   0  26  -5   28.84   28.19
   0  26   6  378.60  122.13
   0  26   6  -12.62  112.24
   0  26  -6  359.44  125.11
   0  26   7   13.05   20.05
   0  26  -7   -1.03   23.74
   0  26   8  301.06  110.24
   0  26  -8  232.36  115.95
   0  26   9   12.46   26.04
   0  26  -9   16.46   55.25
   0  27   0    1.24   17.57
   0  27   1   64.60   30.44
   0  27  -1   49.03   30.72
   0  27   2  557.93  195.63
   0  27  -2  454.64  195.54
   0  27   3   16.19   24.40
   0  27  -3   17.42   26.44
   0  27   4  759.71  308.23
   0  27  -4  909.47  310.16
   0  27   5  170.42   79.72
   0  27  -5  249.64   84.71
   0  27   6    8.89   19.86
   0  27  -6   19.36   25.82
   0  27   7   18.73   23.06
   0  27  -7   28.44   37.00
   0  27   8    2.53   24.79
   0  27  -8   11.30   38.99
   0  28   0    2.20   18.17
   0  28   1  630.82  251.68
   0  28  -1  703.35  252.26
   0  28   2   25.61   26.35
   0  28  -2   34.47   29.27
   0  28   3  420.71  163.40
   0  28  -3  426.47  164.66
   0  28   4   55.63   41.18
   0  28  -4   80.22   44.13
   0  28   5  153.78   70.33
   0  28  -5  195.40   74.95
   0  28   6   15.24   21.99
   0  28  -6   15.82   26.44
   0  28   7  579.00  200.71
   0  28  -7  407.23  204.55
   0  29   0    8.82   19.58
   0  29   1    3.34   20.24
   0  29  -1    7.83   19.83
   0  29   2  277.52  128.53
   0  29  -2  395.28  131.42
   0  29   3   52.76   37.51
   0  29  -3   61.37   43.33
   0  29   4  297.86  121.61
   0  29  -4  319.53  123.73
   0  29   5   13.03   40.04
   0  29  -5    8.90   36.50
   0  29   6 1027.33  348.08
   0  29  -6  724.80  349.71
   0  29  -7    0.77   40.97
   0  30   0   13.58   21.24
   0  30   1  263.01  108.72
   0  30  -1  283.91  109.34
   0  30   2   80.68   47.43
   0  30  -2  112.26   50.54
   0  30   3   85.17   52.63
   0  30  -3  146.98   59.75
   0  30   4   96.56   54.86
   0  30  -4  109.54   59.74
   0  30  -5   19.27   41.45
   0  30  -6    7.24   38.06
   0  31   0  -13.17   25.30
   0  31   1  138.86   74.95
   0  31  -1  213.52   77.18
   0  31   2  397.85  158.89
   0  31  -2  411.65  159.80
   0  31   3   -4.96   29.26
   0  31  -3   -8.66   44.17
   0  31   4  306.31  130.11
   0  31  -4  337.54  133.57
   0  32   0   66.33   41.57
   0  32   1   64.86   42.35
   0  32  -1   81.16   51.72
   0  32   2   57.33   44.55
   0  32  -2   77.67   46.25
   1   0   0   28.15   11.03
  -1   0   0   23.18    8.93
   1   0   1    0.99    3.89
   1   0   1   -1.97    5.86
  -1   0  -1    2.43    3.47
  -1   0  -1    0.47    5.84
   1   0   3    1.28    7.44
   1   0   3    2.08    8.03
  -1   0  -3    9.60    5.82
  -1   0  -3    0.81    8.02
   1   0   4  570.50  188.19
   1   0   4  402.99  149.83
  -1   0  -4  533.10  187.43
  -1   0  -4  437.94  149.72
   1   0   5    3.26   13.07
   1   0   5   -0.57   10.42
  -1   0  -5    1.01    6.39
  -1   0  -5    1.73   10.42
   1   0   6   51.09   22.57
   1   0   6   34.23   16.89
  -1   0  -6   40.05   18.55
  -1   0  -6   36.05   15.35
   1   0   7    2.77   11.93
   1   0   7   -2.95   12.85
  -1   0  -7    4.53    7.69
  -1   0  -7   -2.33    8.83
   1   0   8 2513.97 1039.99
   1   0   8 2938.00  835.52
  -1   0  -8 3183.79 1039.63
  -1   0  -8 2517.40  834.98
   1   0   9    4.49   14.30
   1   0   9   -1.05   17.03
  -1   0  -9    3.30   12.27
  -1   0  -9    0.81   20.23
   1   0  10   22.79   24.04
  -1   0 -10   41.31   20.13
   1   0  11    1.95   15.45
   1   0  11    4.05   29.65
  -1   0 -11    1.74   12.60
   1   0  12  321.58  119.67
   1   0  12  266.08   98.69
   1   0  13   15.96   21.14
   1   0  13   -2.71   33.48
   1   0  14   84.57   44.55
   1   0  14   61.55   47.70
   1   1   0  402.51  176.28
   1   1   0  415.32  141.02
  -1   1   0  478.88  176.47
  -1   1   0  440.24  140.98
   1  -1   0  578.53  176.42
   1  -1   0  505.48  141.25
   1   1   1  332.98  146.17
   1   1   1  455.23  146.72
   1   1   1  346.00  117.11
  -1   1  -1  372.86  117.13
   1  -1   1  555.40  147.02
   1  -1   1  316.57  117.07
   1   1   2  638.17  241.37
   1   1   2  503.53  193.09
  -1  -1  -2  748.50  241.26
  -1  -1  -2  566.77  193.10
  -1   1  -2  758.40  241.44
  -1   1  -2  576.25  193.15
   1  -1   2  680.66  241.63
   1  -1   2  524.14  193.17
   1   1   3 4862.49 1578.57
   1   1   3 3658.43 1268.90
  -1  -1  -3 4693.15 1578.43
  -1  -1  -3 3910.70 1268.91
  -1   1  -3 4069.47 1578.46
  -1   1  -3 3126.53 1268.83
   1  -1   3 5723.93 1578.87
   1  -1   3 2921.06 1268.80
   1   1   4  162.78   59.22
   1   1   4  107.65   46.92
  -1  -1  -4  137.70   58.43
  -1  -1  -4  131.01   46.47
  -1   1  -4  141.41   58.52
  -1   1  -4  126.19   46.33
   1  -1   4  276.58   60.51
   1  -1   4  104.67   46.55
   1   1   5   37.65   16.64
   1   1   5   22.83   14.91
  -1  -1  -5   30.00   14.06
  -1  -1  -5   34.59   13.36
  -1   1  -5   29.06   14.65
  -1   1  -5   28.07   14.14
   1  -1   5   22.16   16.59
   1  -1   5   28.65   15.48
   1   1   6  925.76  223.07
   1   1   6  540.86  177.84
  -1  -1  -6  545.52  221.96
  -1  -1  -6  542.95  177.53
  -1   1  -6  562.89  222.04
  -1   1  -6  532.42  177.51
   1  -1   6  517.79  222.31
   1  -1   6  539.67  177.75
   1   1   7 2780.10  714.81
   1   1   7 1816.63  573.46
  -1  -1  -7 1895.23  713.85
  -1  -1  -7 1577.25  573.05
  -1   1  -7 1880.41  714.03
  -1   1  -7 1668.11  573.13
   1  -1   7 1791.34  714.40
   1  -1   7 1834.31  573.48
   1   1   8  195.44   62.76
   1   1   8  143.37   48.90
  -1  -1  -8  196.66   60.49
  -1  -1  -8  120.48   48.15
  -1   1  -8  170.32   60.16
  -1   1  -8   91.13   47.23
   1  -1   8  148.95   60.61
   1  -1   8  141.24   50.03
   1   1   9  101.64   49.06
   1   1   9  127.43   40.14
  -1  -1  -9  160.11   48.04
  -1  -1  -9   99.86   42.99
  -1   1  -9  119.16   47.62
  -1   1  -9   99.84   41.56
   1  -1   9  105.90   48.73
   1  -1   9  129.49   42.28
   1   1  10  205.55   71.42
   1   1  10  162.87   59.50
  -1  -1 -10  186.61   71.66
  -1   1 -10  164.06   71.50
   1  -1  10  151.93   61.02
   1   1  11   -1.36   18.38
   1   1  11   -8.51   29.55
  -1   1 -11   -3.38   12.63
   1  -1  11    6.57   24.57
   1   1  12   85.39   39.66
   1   1  12   64.87   40.19
  -1   1 -12   76.46   39.33
   1  -1  12  110.54   41.86
   1  -1  12   53.98   39.56
   1   1  13 1254.45  479.21
   1   1  13 1250.54  386.89
   1  -1  13 1324.19  479.56
   1  -1  13 1258.66  386.92
   1   1  14    0.99   28.40
   1   1  14   -1.54   48.81
   1  -1  14    1.52   26.90
   1  -1  14   -8.17   39.06
   1   2   0    1.82    2.63
   1   2   0    3.61    7.29
  -1  -2   0    2.09    2.84
  -1  -2   0    1.13    4.78
  -1   2   0    2.08    3.27
  -1   2   0    3.60    5.26
   1  -2   0    1.69    2.61
   1  -2   0    2.31    8.38
   1   2   1  858.55  381.85
   1   2   1 1226.10  382.41
   1   2   1  911.59  306.68
  -1  -2  -1  995.51  306.67
  -1   2  -1 1488.33  382.76
  -1   2  -1 1023.54  306.75
   1  -2   1  750.62  306.65
   1   2   2 1358.56  403.70
   1   2   2  946.42  323.71
  -1  -2  -2  992.83  323.70
  -1   2  -2 1167.80  403.82
  -1   2  -2 1151.22  323.83
   1  -2   2  976.42  403.91
   1  -2   2  785.63  323.68
   1   2   3   71.51   29.64
   1   2   3   74.65   29.95
   1   2   3   68.48   24.84
  -1  -2  -3   97.75   29.91
  -1  -2  -3   63.32   23.75
  -1   2  -3   70.96   30.31
  -1   2  -3   70.61   23.97
   1  -2   3   74.59   30.53
   1  -2   3   72.70   23.79
   1   2   4   81.25   25.49
   1   2   4   45.10   21.10
  -1  -2  -4   69.29   25.05
  -1  -2  -4   62.05   20.34
  -1   2  -4   51.76   25.11
  -1   2  -4   60.67   20.09
   1  -2   4   51.55   25.16
   1  -2   4   51.05   20.74
   1   2   5   14.99   11.04
   1   2   5    6.47   11.95
  -1  -2  -5    3.77    8.10
  -1  -2  -5    8.09    9.82
  -1   2  -5    7.24    7.89
  -1   2  -5    5.94    9.78
   1  -2   5    4.74    7.43
   1  -2   5    5.22   12.65
   1   2   6  698.37  220.44
   1   2   6  534.05  175.96
  -1  -2  -6  744.61  220.02
  -1  -2  -6  485.07  175.68
  -1   2  -6  567.19  219.90
  -1   2  -6  473.37  175.69
   1  -2   6  568.58  220.22
   1  -2   6  515.36  175.99
   1   2   7 1276.72  342.70
   1   2   7  812.14  273.99
  -1  -2  -7 1141.89  341.92
  -1  -2  -7  657.17  273.50
  -1   2  -7  868.70  341.77
  -1   2  -7  778.81  273.69
   1  -2   7  837.48  342.16
   1  -2   7  774.27  273.97
   1   2   8 1405.79  466.77
   1   2   8 1707.57  468.50
   1   2   8 1218.37  375.24
  -1  -2  -8 1581.39  467.46
  -1  -2  -8  900.73  374.46
  -1   2  -8 1147.44  467.29
  -1   2  -8  819.70  374.40
   1  -2   8 1064.08  467.74
   1  -2   8 1135.09  375.10
   1   2   9   15.93   14.36
   1   2   9    8.03   12.65
   1   2   9   10.34   20.17
  -1  -2  -9    7.73   20.27
  -1   2  -9   12.74   10.98
  -1   2  -9   14.19   21.32
   1  -2   9    9.92   12.35
   1  -2   9    0.10   17.78
   1   2  10  209.73   78.43
   1   2  10  204.44   65.28
  -1   2 -10  207.88   79.51
   1  -2  10  155.27   65.23
   1   2  11   13.94   16.66
   1   2  11   13.66   29.72
  -1   2 -11    8.87   16.86
   1  -2  11    8.96   24.49
   1   2  12  769.63  293.34
   1   2  12  832.66  238.56
  -1   2 -12  757.17  294.76
   1  -2  12  829.72  238.49
   1   2  13  304.76   74.27
   1   2  13   84.01   65.39
   1  -2  13  111.82   73.48
   1  -2  13   44.39   67.82
   1   2  14  356.73  138.09
   1   2  14  415.38  132.41
   1  -2  14  353.98  137.37
   1  -2  14  253.92  114.77
   1   3   0   93.14   50.91
   1   3   0  141.12   40.67
  -1  -3   0  148.22   40.74
  -1   3   0  185.44   51.74
  -1   3   0  156.14   40.98
   1  -3   0  177.39   41.81
   1   3   1   21.08    8.97
   1   3   1   19.30    8.70
  -1  -3  -1   18.27    9.13
  -1  -3  -1   16.66    8.34
  -1   3  -1   21.84   10.31
  -1   3  -1   15.40    7.81
   1  -3   1   17.79    9.55
   1  -3   1   20.91   10.06
   1   3   2    0.87    4.64
   1   3   2    1.33    4.89
   1   3   2   -1.73    6.77
  -1  -3  -2    3.43    6.44
  -1   3  -2    0.86    9.72
  -1   3  -2    6.86    6.25
   1  -3   2    1.66    6.03
   1  -3   2   32.70    8.59
   1   3   3   17.94    8.96
   1   3   3   18.46    8.49
   1   3   3    9.36    9.53
  -1  -3  -3   10.99    9.42
  -1   3  -3   19.69    9.86
  -1   3  -3   14.35    8.09
   1  -3   3   10.95    9.35
   1  -3   3   17.02   10.55
   1   3   4  308.42  114.06
   1   3   4  412.84  114.89
   1   3   4  273.46   91.34
  -1  -3  -4  255.10   91.14
  -1   3  -4  292.34  114.79
  -1   3  -4  311.14   91.33
   1  -3   4  267.59  114.91
   1  -3   4  259.28   91.29
   1   3   5  381.72  134.96
   1   3   5  459.82  135.81
   1   3   5  299.31  108.06
  -1  -3  -5  311.40  107.85
  -1   3  -5  334.70  135.56
  -1   3  -5  355.54  108.11
   1  -3   5  341.64  135.80
   1  -3   5  311.96  108.02
   1   3   6   47.94   19.28
   1   3   6   55.23   20.77
   1   3   6   46.13   18.49
  -1  -3  -6   30.70   15.46
  -1   3  -6   37.73   19.07
  -1   3  -6   39.41   16.93
   1  -3   6   29.75   18.80
   1  -3   6   32.57   17.22
   1   3   7  348.37  108.24
   1   3   7  363.80  109.54
   1   3   7  274.77   86.94
  -1  -3  -7  176.42   86.14
  -1   3  -7  274.21  108.64
  -1   3  -7  254.14   86.36
   1  -3   7  263.79  108.99
   1  -3   7  241.22   86.96
   1   3   8  220.66   74.51
   1   3   8  266.93   77.04
   1   3   8  207.78   61.25
  -1  -3  -8  148.70   59.43
  -1   3  -8  199.09   74.76
  -1   3  -8  123.02   58.90
   1  -3   8  166.00   75.06
   1  -3   8  190.90   60.63
   1   3   9   -2.50   13.02
   1   3   9   -0.75   11.36
   1   3   9    4.98   20.24
  -1  -3  -9    0.96   10.90
  -1   3  -9    0.86    9.21
  -1   3  -9    2.70   25.35
   1  -3   9    4.79   10.56
   1  -3   9   -2.53   17.89
   1   3  10    6.39   15.51
   1   3  10    1.91   21.24
  -1   3 -10    1.48   15.21
   1  -3  10   -5.70   20.52
   1   3  11  324.91  124.01
   1   3  11  304.56  102.16
  -1   3 -11  332.64  125.49
   1  -3  11  325.71  101.86
   1   3  12  664.95  254.67
   1   3  12  663.23  207.64
  -1   3 -12  685.85  256.21
   1  -3  12  716.52  206.64
   1   3  13  339.83  138.65
   1   3  13  354.90  116.62
  -1   3 -13  392.71  140.32
   1  -3  13  378.61  139.97
   1  -3  13  307.20  117.88
   1   3  14  329.02  119.61
   1   3  14  267.70  116.67
   1  -3  14  296.30  120.61
   1  -3  14  231.38  107.11
   1   4   0    5.78    4.13
   1   4   0    5.00    5.12
  -1  -4   0   11.16    4.69
  -1   4   0    9.38    5.93
  -1   4   0   10.93    7.89
   1  -4   0    6.90    5.43
   1  -4   0    8.30    8.79
   1   4   1    1.24    2.66
   1   4   1    3.29    7.29
  -1  -4  -1    0.67    4.06
  -1  -4  -1    0.07    5.49
  -1   4  -1    2.42    4.81
  -1   4  -1    0.38    5.17
   1  -4   1    7.67    4.95
   1  -4   1    0.07    6.80
   1   4   2  404.79  163.75
   1   4   2  568.42  164.42
   1   4   2  415.81  131.39
  -1  -4  -2  423.53  131.21
  -1   4  -2  450.26  164.74
  -1   4  -2  380.54  131.23
   1  -4   2  451.36  164.58
   1  -4   2  375.64  131.28
   1   4   3 1086.18  430.42
   1   4   3 1439.15  431.21
   1   4   3  967.83  345.76
  -1  -4  -3  966.63  345.74
  -1   4  -3 1527.31  431.58
  -1   4  -3 1047.79  345.81
   1  -4   3 1161.27  431.67
   1  -4   3  888.00  345.75
   1   4   4   58.12   30.77
   1   4   4   75.47   31.75
   1   4   4   55.26   25.23
  -1  -4  -4   65.03   25.17
  -1   4  -4  103.50   32.46
  -1   4  -4   58.75   24.69
   1  -4   4  156.89   33.28
   1  -4   4   55.96   24.99
   1   4   5  730.66  251.56
   1   4   5  944.85  252.58
   1   4   5  576.72  201.91
  -1  -4  -5  563.17  201.70
  -1   4  -5  618.17  252.27
  -1   4  -5  607.56  201.81
   1  -4   5  604.59  252.56
   1  -4   5  573.13  201.80
   1   4   6    7.09    9.67
   1   4   6    4.86   10.03
   1   4   6   -1.56   13.27
  -1  -4  -6    2.72    7.67
  -1   4  -6    3.67    8.49
  -1   4  -6    6.21   11.73
   1  -4   6    4.44    7.60
   1  -4   6   -0.14   10.63
   1   4   7   65.34   25.64
   1   4   7   75.56   27.36
   1   4   7   60.96   22.48
  -1  -4  -7   49.28   21.15
  -1   4  -7   57.25   25.40
  -1   4  -7   48.90   20.50
   1  -4   7   44.35   25.68
   1  -4   7   54.55   22.31
   1   4   8  226.59   73.76
   1   4   8  209.99   75.07
   1   4   8  189.82   60.76
  -1  -4  -8  143.32   58.61
  -1   4  -8  210.24   74.46
  -1   4  -8  140.61   58.71
   1  -4   8  162.04   74.68
   1  -4   8  221.29   60.58
   1   4   9  668.00  196.98
   1   4   9  481.65  198.19
   1   4   9  628.92  159.14
  -1  -4  -9  313.37  157.48
  -1   4  -9  629.51  197.96
  -1   4  -9  372.67  158.76
   1  -4   9  408.58  198.23
   1  -4   9  688.70  159.20
   1   4  10   23.77   16.11
   1   4  10   31.39   24.02
  -1   4 -10   28.05   19.52
   1  -4  10   26.05   26.63
   1   4  11   58.05   28.96
   1   4  11   60.24   32.59
  -1   4 -11   68.23   31.88
   1  -4  11   75.43   32.48
   1   4  12   39.20   23.98
   1   4  12   40.23   32.58
  -1   4 -12   33.43   24.74
   1  -4  12   42.33   31.55
   1   4  13    5.27   19.62
   1   4  13   -1.94   35.23
  -1   4 -13    8.43   16.97
   1  -4  13   -3.05   34.00
   1   4  14   20.40   26.22
   1   4  14    7.12   68.90
   1  -4  14   14.09   27.00
   1  -4  14   16.50   44.08
   1   5   0  525.28  183.43
   1   5   0  518.54  146.94
  -1  -5   0  331.53  183.33
  -1  -5   0  622.40  146.98
  -1   5   0  639.70  183.99
  -1   5   0  473.97  147.14
   1  -5   0  477.73  183.55
   1  -5   0  638.12  147.51
   1   5   1   43.27   17.24
   1   5   1   44.51   14.30
  -1  -5  -1   40.56   17.23
  -1  -5  -1   53.63   13.90
  -1   5  -1   45.02   18.54
  -1   5  -1   46.71   14.55
   1  -5   1   39.04   17.72
   1  -5   1   42.40   16.01
   1   5   2   65.31   26.29
   1   5   2   66.85   21.79
  -1  -5  -2   70.08   26.42
  -1   5  -2   70.83   27.23
  -1   5  -2   63.59   21.11
   1  -5   2   60.87   21.72
   1   5   3  156.58   65.70
   1   5   3  251.16   66.61
   1   5   3  160.26   52.94
  -1   5  -3  178.80   66.97
  -1   5  -3  139.13   52.55
   1  -5   3  159.67   66.68
   1  -5   3  159.27   52.88
   1   5   4    3.73    6.35
   1   5   4    2.19    7.08
   1   5   4   10.81   10.71
  -1  -5  -4    7.53    7.27
  -1   5  -4    3.91   13.19
  -1   5  -4    6.41    8.57
   1  -5   4    7.70    9.83
   1  -5   4   11.46   10.34
   1   5   5  277.91  119.59
   1   5   5  414.41  120.62
   1   5   5  273.07   96.16
  -1  -5  -5  278.79   95.72
  -1   5  -5  326.21  120.67
  -1   5  -5  336.63   95.94
   1  -5   5  374.61  121.23
   1  -5   5  280.04   95.87
   1   5   6   28.51   13.35
   1   5   6   32.28   14.58
   1   5   6   17.96   14.10
  -1  -5  -6   14.33   12.01
  -1   5  -6   27.72   15.32
  -1   5  -6   28.47   14.88
   1  -5   6   26.23   16.61
   1  -5   6   31.45   13.60
   1   5   7 1382.96  484.56
   1   5   7 1568.31  485.90
   1   5   7 1119.24  389.43
  -1  -5  -7 1089.96  389.09
  -1   5  -7 1225.11  485.50
  -1   5  -7 1172.60  389.23
   1  -5   7 1528.29  486.16
   1  -5   7 1131.12  389.38
   1   5   8   75.68   25.40
   1   5   8   63.33   26.65
   1   5   8   54.20   25.73
  -1  -5  -8   34.26   20.51
  -1   5  -8   59.51   26.21
   1  -5   8   53.13   27.66
   1  -5   8   52.76   22.04
   1   5   9    5.06   10.30
   1   5   9   12.69   17.33
  -1   5  -9   -0.90   10.22
  -1   5  -9    7.89   17.89
   1  -5   9    0.63   14.07
   1   5  10   33.45   18.91
   1   5  10   37.11   29.41
  -1   5 -10   35.94   21.68
   1  -5  10   42.04   27.97
   1   5  11  112.87   48.17
   1   5  11  106.14   45.40
  -1   5 -11  138.10   50.85
   1  -5  11  104.07   47.38
   1   5  12  275.94  108.13
   1   5  12  274.16   91.33
  -1   5 -12  293.17  110.42
   1  -5  12  272.24   92.90
   1   5  13 1360.39  502.32
   1   5  13 1334.57  406.51
  -1   5 -13 1318.21  503.45
   1  -5  13 1357.03  406.22
   1   5  14    3.23   24.90
   1   5  14   31.46   71.45
  -1   5 -14   10.19   23.78
   1  -5  14    6.99   26.32
   1  -5  14    9.17   47.46
   1   6   0   27.28   11.85
   1   6   0   29.14    9.16
  -1  -6   0   15.38   11.32
  -1  -6   0   36.18    9.14
  -1   6   0   28.95   12.41
  -1   6   0   39.22    9.61
  -1   6   0   41.40   11.76
   1  -6   0   24.92   11.78
   1  -6   0   37.05   13.85
   1   6   1  287.33  110.20
   1   6   1  285.98   88.08
  -1  -6  -1  268.37  110.20
  -1  -6  -1  297.92   88.07
  -1   6  -1  366.42  111.21
  -1   6  -1  339.54   88.33
   1  -6   1  255.51  110.63
   1  -6   1  354.37   88.81
   1   6   2 3075.19 1207.27
   1   6   2 3306.61  970.81
  -1  -6  -2 3721.35 1207.40
  -1  -6  -2 3375.98  970.76
  -1   6  -2 3452.69 1208.34
  -1   6  -2 3653.68  970.95
   1  -6   2 2600.99 1207.78
   1  -6   2 2819.49  970.81
   1   6   3   36.85   15.48
   1   6   3   40.98   16.10
   1   6   3   34.16   13.49
  -1  -6  -3   42.90   12.90
  -1   6  -3   37.85   17.54
  -1   6  -3   32.54   13.54
   1  -6   3   30.48   16.93
   1  -6   3   32.66   13.23
   1   6   4   99.94   42.29
   1   6   4  158.85   43.44
   1   6   4   82.10   34.71
  -1  -6  -4   99.10   33.98
  -1   6  -4  130.68   45.08
  -1   6  -4  106.17   34.28
   1  -6   4   98.89   43.41
   1  -6   4   93.33   34.60
   1   6   5    5.10    6.15
   1   6   5    6.01    8.47
   1   6   5    0.52   11.89
  -1  -6  -5    2.00    7.77
  -1   6  -5    3.72   12.04
  -1   6  -5    7.40    9.00
   1  -6   5    7.12    9.33
   1  -6   5    7.68   11.18
   1   6   6  266.04   93.92
   1   6   6  311.82   95.10
   1   6   6  158.26   75.72
  -1  -6  -6  208.87   75.24
  -1   6  -6  246.63   95.08
  -1   6  -6  245.28   75.80
   1  -6   6  260.80   95.38
   1  -6   6  221.39   75.38
   1   6   7  311.20  110.99
   1   6   7  342.24  112.22
   1   6   7  213.68   89.24
  -1  -6  -7  261.83   88.91
  -1   6  -7  306.92  112.05
  -1   6  -7  273.80   89.24
   1  -6   7  312.86  112.52
   1  -6   7  257.94   89.27
   1   6   8 2344.21  780.80
   1   6   8 2347.59  782.13
   1   6   8 1717.44  627.68
  -1  -6  -8 1688.76  627.23
  -1   6  -8 2358.83  781.89
   1  -6   8 1870.10  781.88
   1  -6   8 1973.55  627.74
   1   6   9  338.98  118.08
   1   6   9  257.36   95.66
  -1   6  -9  300.83  118.98
   1  -6   9  281.98   95.09
   1   6  10  143.55   53.31
   1   6  10  111.27   46.76
  -1   6 -10  125.65   54.52
   1  -6  10  125.57   45.95
   1   6  11   82.40   36.07
   1   6  11   70.56   37.44
  -1   6 -11   83.62   39.17
   1  -6  11  102.78   38.24
   1   6  12  839.84  332.75
   1   6  12  912.32  269.67
  -1   6 -12  942.53  334.53
   1  -6  12  928.90  269.95
   1   6  13   44.10   25.51
   1   6  13   71.15   40.31
  -1   6 -13   35.84   28.28
   1  -6  13   44.50   41.85
   1   6  14  417.87  163.95
   1   6  14  463.75  150.21
  -1   6 -14  434.31  165.49
   1  -6  14  386.54  153.31
   1   7   0   76.26   28.26
   1   7   0   79.74   21.93
  -1  -7   0   45.26   27.85
  -1  -7   0   82.66   21.84
  -1   7   0   79.44   28.66
  -1   7   0  100.42   22.26
  -1   7   0  105.69   23.33
   1  -7   0   55.75   28.13
   1  -7   0   99.78   24.13
   1   7   1 1122.79  446.24
  -1  -7  -1 1173.15  446.27
  -1  -7  -1 1247.12  358.37
  -1   7  -1 1488.37  447.13
  -1   7  -1 1206.49  358.55
   1  -7   1 1128.21  446.56
   1  -7   1 1262.43  358.65
   1   7   2   19.28    8.70
   1   7   2   21.33    9.49
  -1  -7  -2   19.34    9.54
  -1  -7  -2   19.32    7.88
  -1   7  -2   22.29   11.22
  -1   7  -2   18.29   11.33
   1  -7   2   17.00    9.87
   1  -7   2   17.33   10.37
   1   7   3 4648.34 1751.39
   1   7   3 4474.61 1408.61
  -1  -7  -3 5628.52 1751.64
  -1  -7  -3 4262.26 1408.49
  -1   7  -3 4390.21 1752.48
  -1   7  -3 5004.91 1408.70
   1  -7   3 4089.32 1751.99
   1  -7   3 4572.50 1408.65
   1   7   4  244.81   91.21
   1   7   4  343.14   92.19
   1   7   4  189.73   73.27
  -1  -7  -4  214.03   72.86
  -1   7  -4  234.16   92.57
  -1   7  -4  257.21   73.22
   1  -7   4  196.54   92.03
   1  -7   4  215.01   73.22
   1   7   5   79.67   31.56
   1   7   5  100.40   32.84
   1   7   5   56.07   26.98
  -1  -7  -5   67.06   25.58
  -1   7  -5  102.34   35.45
  -1   7  -5   77.56   26.08
   1  -7   5   66.08   32.71
   1  -7   5   83.55   26.86
   1   7   6    4.04    6.34
   1   7   6    1.96    7.82
   1   7   6    0.28   13.68
  -1  -7  -6    0.11    8.68
  -1   7  -6   -0.09    9.38
  -1   7  -6    0.06   13.11
   1  -7   6    0.64    8.27
   1  -7   6    4.08   12.50
   1   7   7 1563.44  544.49
   1   7   7 1914.05  545.96
   1   7   7  937.48  437.45
  -1  -7  -7 1283.28  437.34
  -1   7  -7 1577.92  545.76
  -1   7  -7 1206.51  437.48
   1  -7   7 1302.70  545.57
   1  -7   7 1573.53  437.96
   1   7   8  501.96  164.53
   1   7   8  524.23  166.03
   1   7   8  370.31  132.90
  -1  -7  -8  350.90  131.69
  -1   7  -8  477.90  165.86
  -1   7  -8  313.06  131.78
   1  -7   8  388.73  165.60
   1  -7   8  495.66  132.71
   1   7   9  244.36   94.00
   1   7   9  218.42   76.96
  -1   7  -9  262.54   95.39
   1  -7   9  247.37   76.66
   1   7  10  237.89   92.88
   1   7  10  236.89   79.13
  -1   7 -10  250.81   94.67
   1  -7  10  245.18   77.58
   1   7  11    8.35   13.19
   1   7  11    9.06   27.06
  -1   7 -11    0.59   20.22
   1  -7  11   22.11   27.58
   1   7  12   85.05   36.81
   1   7  12   71.41   40.85
  -1   7 -12   71.46   38.89
   1  -7  12   84.52   42.00
   1   7  13 1005.13  388.16
   1   7  13 1036.83  315.88
  -1   7 -13 1053.61  390.16
   1  -7  13 1122.13  315.71
   1   7  14  309.52  120.69
   1   7  14  353.35  121.87
  -1   7 -14  297.00  122.03
   1  -7  14  265.75  116.30
   1   8   0   19.07    9.28
  -1  -8   0    7.59    7.42
  -1   8   0   18.86    8.73
  -1   8   0   22.59    7.21
  -1   8   0   21.99    9.46
   1  -8   0   10.03    7.47
   1  -8   0   18.77   13.19
   1   8   1 1233.42  451.79
   1   8   1 1283.00  362.83
  -1  -8  -1 1193.70  451.80
  -1  -8  -1 1238.94  362.77
  -1   8  -1 1415.95  363.09
   1  -8   1 1065.75  452.04
   1  -8   1 1372.81  363.15
  -1  -8  -2 6523.61 2188.11
  -1  -8  -2 5015.37 1759.72
  -1   8  -2 5991.20 2188.99
  -1   8  -2 7081.38 1760.09
   1  -8   2 4936.30 2188.41
   1  -8   2 6001.65 1759.97
   1   8   3  475.48  195.50
   1   8   3  499.98  156.87
  -1  -8  -3  646.42  195.79
  -1   8  -3  524.23  196.70
  -1   8  -3  580.22  157.00
   1  -8   3  420.06  196.10
   1  -8   3  498.68  156.96
   1   8   4  891.76  338.17
   1   8   4 1378.45  339.26
   1   8   4  653.62  271.55
  -1  -8  -4  819.55  271.48
  -1   8  -4  893.44  339.37
  -1   8  -4  908.84  271.69
   1  -8   4  750.42  338.92
   1  -8   4  801.25  271.61
   1   8   5   39.83   16.55
   1   8   5   57.89   17.75
   1   8   5   19.76   15.33
  -1  -8  -5   29.05   13.94
  -1   8  -5   40.08   22.08
  -1   8  -5   33.56   14.15
   1  -8   5   27.85   17.65
   1  -8   5   39.66   15.35
   1   8   6    5.09    6.55
   1   8   6    0.93    9.08
   1   8   6    5.58   11.90
  -1  -8  -6   -0.62    9.89
  -1   8  -6   10.96   13.63
  -1   8  -6    2.86   11.50
   1  -8   6   -3.02    8.40
   1  -8   6    2.70   14.76
   1   8   7  677.09  233.57
   1   8   7  786.02  234.96
   1   8   7  439.72  187.61
  -1  -8  -7  536.57  187.17
  -1   8  -7  620.13  234.85
  -1   8  -7  577.57  187.67
   1  -8   7  555.80  234.66
   1  -8   7  681.38  188.37
   1   8   8 1862.82  617.84
   1   8   8 2001.17  619.42
   1   8   8 1373.53  496.70
  -1  -8  -8 1297.70  496.11
  -1   8  -8 1883.50  619.11
  -1   8  -8 1194.82  496.33
   1  -8   8 1469.65  618.81
   1  -8   8 2105.75  497.47
   1   8   9  202.26   78.11
   1   8   9  147.41   65.52
  -1   8  -9  226.67   79.89
   1  -8   9  209.50   64.41
   1   8  10   18.03   13.41
   1   8  10   14.13   23.73
  -1   8 -10   12.23   16.88
   1  -8  10   17.52   24.18
   1   8  11   22.76   15.87
   1   8  11   24.53   28.41
  -1   8 -11   17.22   19.30
   1  -8  11   11.33   34.45
   1   8  12  133.95   54.31
   1   8  12  151.82   53.23
  -1   8 -12  125.01   58.83
   1  -8  12  126.83   58.82
   1   8  13    5.74   17.78
   1   8  13    5.55   37.69
  -1   8 -13    2.30   22.08
   1  -8  13    7.11   39.88
   1   8  14   48.55   33.20
   1   8  14   69.26   93.38
  -1   8 -14   37.54   33.18
   1  -8  14   44.57   82.07
   1   9   0  662.53  212.25
  -1  -9   0  398.44  212.09
  -1   9   0  638.29  212.66
  -1   9   0  749.96  170.07
  -1   9   0  711.71  170.36
   1  -9   0  412.41  212.09
   1  -9   0  809.09  170.62
   1   9   1  382.95  145.88
   1   9   1  415.33  116.69
  -1  -9  -1  384.25  145.95
  -1   9  -1  418.46  146.75
  -1   9  -1  494.70  117.14
   1  -9   1  309.08  146.07
   1  -9   1  508.40  117.36
   1   9   2  946.89  356.49
   1   9   2  938.28  286.21
  -1  -9  -2 1031.20  356.56
  -1  -9  -2  945.36  286.09
  -1   9  -2 1026.04  357.48
  -1   9  -2 1214.61  286.58
   1  -9   2  738.31  356.80
   1  -9   2  984.69  286.43
   1   9   3 1125.26  421.28
   1   9   3 1040.90  338.43
  -1  -9  -3 1390.63  421.51
  -1  -9  -3 1152.76  338.32
  -1   9  -3 1162.40  422.57
  -1   9  -3 1176.41  338.53
   1  -9   3  816.28  421.66
   1  -9   3 1035.90  338.49
   1   9   4  459.98  189.55
   1   9   4  706.02  190.62
  -1  -9  -4  595.29  189.94
  -1  -9  -4  464.98  152.00
  -1   9  -4  519.94  191.08
  -1   9  -4  438.59  152.10
   1  -9   4  364.50  190.21
   1  -9   4  454.67  152.19
   1   9   5   60.87   17.04
   1   9   5   54.22   17.97
   1   9   5   20.58   16.57
  -1  -9  -5   17.28   13.86
  -1   9  -5   38.76   21.83
  -1   9  -5   23.63   14.98
   1  -9   5   17.99   17.61
   1  -9   5   22.78   14.41
   1   9   6 1226.81  421.65
   1   9   6 1416.54  422.84
   1   9   6  513.28  338.48
  -1  -9  -6  991.13  338.50
  -1   9  -6 1415.04  423.45
  -1   9  -6 1257.98  339.09
   1  -9   6  871.50  422.37
   1  -9   6 1062.90  338.97
   1   9   7  965.78  307.71
   1   9   7 1055.47  309.17
   1   9   7  492.84  247.15
  -1  -9  -7  691.59  246.78
  -1   9  -7  850.52  309.05
  -1   9  -7  693.11  247.07
   1  -9   7  674.24  308.59
   1  -9   7  869.91  247.64
   1   9   8   20.16   11.20
   1   9   8   11.93   13.00
   1   9   8   23.05   20.07
  -1  -9  -8    7.59   12.44
  -1   9  -8   12.80   13.93
  -1   9  -8    7.27   17.95
   1  -9   8    5.75   12.07
   1  -9   8   22.12   17.59
   1   9   9  108.11   43.48
   1   9   9   98.83   40.16
  -1   9  -9  114.72   45.70
   1  -9   9  103.12   40.92
   1   9  10   78.29   35.64
   1   9  10   86.75   39.44
  -1   9 -10   80.66   37.09
   1  -9  10   93.45   39.66
   1   9  11  115.62   49.20
   1   9  11  112.05   51.20
  -1   9 -11  115.71   51.12
   1  -9  11  152.15   51.93
   1   9  12  450.57  177.29
   1   9  12  475.76  146.23
  -1   9 -12  473.45  179.17
   1  -9  12  512.40  148.67
   1   9  13  536.82  200.72
   1   9  13  526.74  166.04
  -1   9 -13  523.37  202.57
   1  -9  13  495.30  166.13
   1   9  14   81.02   42.98
   1   9  14   92.46   82.33
  -1   9 -14   75.86   48.72
   1  10   0   19.58    9.45
  -1 -10   0    7.84    8.40
  -1  10   0   21.86   10.14
  -1  10   0   21.90    6.72
  -1  10   0   16.76    8.79
   1 -10   0    9.29    8.81
   1 -10   0   20.02    9.39
   1  10   1 1003.61  377.75
   1  10   1  996.92  303.14
  -1 -10  -1 1088.19  377.78
  -1 -10  -1  958.42  303.06
  -1  10  -1 1039.26  378.47
  -1  10  -1 1197.76  303.52
   1 -10   1  855.53  377.90
   1 -10   1 1192.81  303.64
   1  10   2    4.83    5.27
   1  10   2    8.73    7.16
  -1 -10  -2    6.84    6.75
  -1 -10  -2    6.64    4.96
  -1  10  -2    8.12   11.49
  -1  10  -2    6.88    9.24
   1 -10   2    7.47    7.36
   1 -10   2    8.59   11.21
   1  10   3  494.63  181.97
   1  10   3  420.08  145.92
  -1 -10  -3  583.87  182.16
  -1 -10  -3  469.50  145.77
  -1  10  -3  494.69  183.38
  -1  10  -3  524.45  146.07
   1 -10   3  378.76  182.41
   1 -10   3  431.39  145.97
   1  10   4   25.67   11.29
   1  10   4   24.86   12.97
  -1 -10  -4   30.62   12.12
  -1 -10  -4   23.05   10.27
  -1  10  -4   22.85   13.85
  -1  10  -4   23.54   11.80
   1 -10   4   12.35   11.86
   1 -10   4   28.99   12.04
   1  10   5    5.25    6.28
   1  10   5    3.46    7.01
   1  10   5    3.54   10.67
  -1 -10  -5   -0.56    8.88
  -1  10  -5    3.17   11.15
  -1  10  -5    2.07    9.83
   1 -10   5    2.51    7.25
   1 -10   5    7.40   10.26
   1  10   6  745.95  249.40
   1  10   6  966.12  250.71
   1  10   6  278.37  199.96
  -1 -10  -6  514.52  199.76
  -1  10  -6  783.85  251.30
  -1  10  -6  704.81  200.59
   1 -10   6  486.66  250.03
   1 -10   6  629.45  200.35
   1  10   7  788.42  249.09
   1  10   7  934.52  250.74
   1  10   7  370.56  199.82
  -1 -10  -7  448.01  199.33
  -1  10  -7  729.89  250.83
  -1  10  -7  656.76  200.49
   1 -10   7  505.33  249.82
   1 -10   7  686.84  200.36
   1  10   8   84.54   25.85
   1  10   8   49.89   26.89
  -1 -10  -8   29.60   20.44
  -1  10  -8   61.88   28.07
  -1  10  -8   34.59   25.83
   1 -10   8   71.09   27.57
   1  10   9  184.39   65.58
   1  10   9  143.03   56.18
  -1  10  -9  163.16   67.15
   1 -10   9  129.81   56.27
   1  10  10  101.48   41.16
   1  10  10   79.72   42.82
  -1  10 -10   99.64   43.18
   1 -10  10   96.12   43.16
   1  10  11   25.17   20.14
   1  10  11   33.71   36.22
  -1  10 -11   31.13   22.17
   1 -10  11   24.99   30.89
   1  10  12  503.15  189.23
   1  10  12  514.20  157.68
  -1  10 -12  490.35  190.74
   1 -10  12  476.26  157.38
   1  10  13   17.19   23.25
   1  10  13   28.95   41.24
  -1  10 -13   26.44   26.69
   1 -10  13   32.13   46.50
   1  10  14  112.06   54.58
   1  10  14  111.09   89.61
  -1  10 -14  122.88   59.98
   1  11   0  460.15  146.22
  -1 -11   0  343.67  145.89
  -1  11   0  435.78  146.54
  -1  11   0  448.53  116.69
  -1  11   0  481.99  117.11
   1 -11   0  270.93  145.85
   1 -11   0  472.22  117.36
   1  11   1    4.60    6.19
   1  11   1    9.17    5.66
  -1 -11  -1    6.69    6.80
  -1 -11  -1    7.66    3.73
  -1  11  -1    5.82    9.32
  -1  11  -1   12.97    5.68
  -1  11  -1   10.41    8.36
   1 -11   1    6.74    7.02
   1 -11   1   10.51   10.41
   1  11   2   15.75    8.28
   1  11   2   18.47    9.07
  -1 -11  -2   20.98    9.90
  -1  11  -2   14.02   12.20
  -1  11  -2   15.22   11.66
   1 -11   2   11.63    8.99
   1 -11   2    8.36   10.57
   1  11   3  541.10  190.84
   1  11   3  458.83  153.04
  -1 -11  -3  576.84  190.97
  -1 -11  -3  424.94  152.69
  -1  11  -3  561.35  192.31
  -1  11  -3  575.44  153.21
   1 -11   3  393.42  191.16
   1 -11   3  545.86  153.41
   1  11   4   36.95   14.56
   1  11   4   27.44   14.60
  -1 -11  -4   35.30   14.99
  -1 -11  -4   32.20   11.49
  -1  11  -4   41.38   16.93
  -1  11  -4   28.50   13.65
   1 -11   4   23.11   14.82
   1 -11   4   28.63   14.10
   1  11   5  161.31   58.14
   1  11   5  238.40   59.56
   1  11   5   57.82   46.85
  -1 -11  -5  116.02   46.27
  -1  11  -5  190.29   60.51
  -1  11  -5  161.64   47.07
   1 -11   5   96.77   58.73
   1 -11   5  161.50   47.32
   1  11   6    0.61    5.20
   1  11   6    2.71    8.02
  -1 -11  -6   -4.15    6.88
  -1  11  -6   10.45   18.51
  -1  11  -6    4.31   14.99
   1 -11   6    0.02    7.78
   1 -11   6    4.26   11.72
   1  11   7    6.61    9.13
   1  11   7    6.53    9.78
   1  11   7   -1.90   14.56
  -1 -11  -7    2.61    8.75
  -1  11  -7    8.67   20.14
  -1  11  -7   11.88   19.24
   1 -11   7    1.87    9.43
   1 -11   7    7.62   11.93
   1  11   8  200.16   65.12
   1  11   8  116.97   53.61
  -1  11  -8  183.24   67.07
  -1  11  -8   90.16   54.19
   1 -11   8  175.35   53.26
   1  11   9    4.72   12.44
   1  11   9   -2.40   28.05
  -1  11  -9    4.70   15.46
   1 -11   9   -1.18   17.59
   1  11  10   18.81   16.19
   1  11  10   12.47   31.32
  -1  11 -10   14.46   18.64
   1 -11  10   21.51   24.77
   1  11  11  413.37  156.57
   1  11  11  410.85  130.78
  -1  11 -11  399.19  158.42
   1 -11  11  435.39  129.76
   1  11  12  286.20  106.75
   1  11  12  270.51   95.11
  -1  11 -12  260.45  108.56
   1 -11  12  257.13   97.36
   1  11  13   20.08   22.61
   1  11  13   25.60   42.39
  -1  11 -13   25.17   26.56
   1 -11  13    1.68   60.51
   1  12   0  133.10   44.00
  -1 -12   0   95.19   43.31
  -1  12   0  106.40   44.22
  -1  12   0  155.61   34.20
  -1  12   0  139.79   35.01
   1 -12   0   74.97   43.24
   1 -12   0  139.67   36.03
   1  12   1  194.53   69.20
   1  12   1  162.33   54.76
  -1 -12  -1  167.50   69.13
  -1  12  -1  176.67   70.00
  -1  12  -1  244.29   54.98
  -1  12  -1  218.43   55.59
   1 -12   1  131.30   69.16
   1 -12   1  216.20   56.26
   1  12   2  790.11  295.97
   1  12   2  876.75  237.51
  -1 -12  -2  860.96  295.98
  -1 -12  -2  669.80  237.17
  -1  12  -2  918.81  297.15
  -1  12  -2 1061.05  238.02
   1 -12   2  581.61  296.10
   1 -12   2  923.80  237.85
   1  12   3  144.11   49.93
   1  12   3  115.59   40.16
  -1 -12  -3  156.11   50.05
  -1 -12  -3   98.63   39.37
  -1  12  -3  138.46   51.65
  -1  12  -3  146.62   40.31
   1 -12   3   88.43   50.16
   1 -12   3  146.38   41.20
   1  12   4  298.44   95.61
   1  12   4  171.26   76.70
  -1 -12  -4  309.66   95.90
  -1 -12  -4  187.80   76.02
  -1  12  -4  251.31   97.18
  -1  12  -4  264.21   76.86
   1 -12   4  192.98   96.04
   1 -12   4  251.09   76.84
   1  12   5  285.09   96.48
   1  12   5  421.42   97.97
   1  12   5   76.40   77.21
  -1 -12  -5  186.99   76.88
  -1  12  -5  329.03   98.82
  -1  12  -5  286.30   77.76
   1 -12   5  148.39   96.89
   1 -12   5  244.98   77.79
   1  12   6    5.02    6.08
   1  12   6    9.11    9.35
   1  12   6    4.51   15.26
  -1 -12  -6    6.83    9.26
  -1  12  -6    7.14   17.95
  -1  12  -6    7.65   19.36
   1 -12   6    3.27    8.34
   1 -12   6    6.02   10.40
   1  12   7   69.09   25.60
   1  12   7   85.92   28.29
   1  12   7   35.40   24.45
  -1 -12  -7   52.69   21.67
  -1  12  -7   84.66   33.09
  -1  12  -7   60.81   28.27
   1 -12   7   35.24   27.33
   1 -12   7   62.91   23.12
   1  12   8 1171.06  371.86
   1  12   8  544.05  298.57
  -1  12  -8  951.24  373.32
   1 -12   8  795.67  298.69
   1  12   9  154.20   56.89
   1  12   9  107.37   52.69
  -1  12  -9  136.81   59.10
   1  12  10  143.62   53.08
   1  12  10   96.93   51.32
  -1  12 -10  103.91   54.79
   1 -12  10  155.13   54.71
   1  12  11   46.01   24.97
   1  12  11   13.38   39.37
  -1  12 -11   36.67   28.34
   1 -12  11   29.18   45.18
   1  12  12  167.10   64.14
   1  12  12  156.63   67.14
  -1  12 -12  142.43   66.61
   1 -12  12  147.65   65.77
   1  12  13    7.83   22.51
   1  12  13   11.73   71.13
  -1  12 -13    1.50   28.66
   1 -12  13  -10.07   50.88
   1  13   0  188.94   58.33
  -1 -13   0  114.50   57.58
  -1  13   0  152.51   58.51
  -1  13   0  194.91   45.63
  -1  13   0  200.64   46.67
   1 -13   0   98.32   57.48
   1 -13   0  230.70   47.36
   1  13   1    1.57    7.60
  -1 -13  -1    0.45    5.81
  -1  13  -1    1.93    9.15
  -1  13  -1   -0.43    4.52
  -1  13  -1   -0.06    8.66
   1 -13   1   -1.06    5.88
   1 -13   1    0.76   10.19
   1  13   2    1.62    5.70
   1  13   2    1.85    7.62
  -1 -13  -2    1.60    6.40
  -1 -13  -2   -0.68    5.61
  -1  13  -2   -0.01   10.23
  -1  13  -2    0.97   10.85
   1 -13   2   -1.04    7.97
   1 -13   2    2.02   10.56
   1  13   3  351.85  126.55
   1  13   3  288.16  101.45
  -1 -13  -3  387.99  126.73
  -1 -13  -3  359.37  101.09
  -1  13  -3  337.67  127.87
  -1  13  -3  366.67  101.63
   1 -13   3  233.73  126.74
   1 -13   3  363.74  101.86
   1  13   4  203.86   67.60
   1  13   4  122.56   54.43
  -1 -13  -4  218.69   67.79
  -1 -13  -4  175.08   53.87
  -1  13  -4  162.21   69.15
  -1  13  -4  171.84   54.52
   1 -13   4  115.12   67.88
   1 -13   4  171.67   55.27
   1  13   5  410.93  134.77
   1  13   5  518.87  136.05
   1  13   5  160.07  108.06
  -1 -13  -5  430.29  135.19
  -1 -13  -5  253.74  107.71
  -1  13  -5  332.31  136.45
  -1  13  -5  371.23  108.87
   1 -13   5  243.42  135.21
   1 -13   5  339.41  108.33
   1  13   6   54.00   20.57
   1  13   6   83.24   23.64
   1  13   6   21.03   21.56
  -1 -13  -6   29.99   17.70
  -1  13  -6   61.23   25.01
  -1  13  -6   65.91   25.75
   1 -13   6   31.83   22.28
   1 -13   6   35.83   19.55
   1  13   7 1733.46  586.36
  -1 -13  -7 1184.99  470.82
  -1  13  -7 2102.83  588.98
  -1  13  -7 1351.93  471.56
   1 -13   7 1493.41  471.58
   1  13   8  144.99   49.24
   1  13   8   66.78   43.52
  -1  13  -8  118.14   53.99
   1 -13   8   99.31   40.65
   1  13   9    9.23   13.13
   1  13   9   31.75   25.54
  -1  13  -9   12.69   18.27
   1 -13   9   13.11   26.47
   1  13  10  147.23   58.20
   1  13  10  134.97   56.45
  -1  13 -10  132.75   60.81
   1 -13  10  175.69   55.23
   1  13  11   84.32   37.82
   1  13  11   77.16   48.17
  -1  13 -11   87.87   41.37
   1 -13  11  100.29   46.75
   1  13  12   -5.80   19.47
   1  13  12   -1.01   45.96
  -1  13 -12   11.99   24.51
   1 -13  12    7.36   53.04
   1  13  13 1615.71  603.12
   1  13  13 2017.88  494.14
  -1  13 -13 1467.02  605.50
   1  14   0   -0.21    9.14
  -1 -14   0   -0.09    5.81
  -1  14   0   -0.69    7.24
  -1  14   0    1.16    5.61
  -1  14   0    5.95    9.71
   1 -14   0    0.90    5.47
   1 -14   0    2.20   10.95
   1  14   1  129.59   39.21
  -1 -14  -1   88.57   38.59
  -1  14  -1  103.96   39.74
  -1  14  -1  123.21   31.57
   1 -14   1   69.73   38.55
   1 -14   1  106.56   31.66
   1  14   2 2176.86  717.08
  -1 -14  -2 1890.05  716.98
  -1 -14  -2 2021.95  575.88
  -1  14  -2 2093.46  717.98
  -1  14  -2 2081.81  576.00
  -1  14  -2 2368.26  576.64
   1 -14   2 1248.57  716.93
   1 -14   2 2134.12  576.50
   1  14   3  927.75  318.74
   1  14   3  796.33  255.87
  -1 -14  -3  968.56  318.87
  -1 -14  -3  875.57  255.59
  -1  14  -3  815.33  319.94
  -1  14  -3 1066.68  256.40
   1 -14   3  574.58  318.84
   1 -14   3  871.39  256.12
   1  14   4    7.60    6.31
   1  14   4   10.42   11.66
  -1 -14  -4    7.22    7.60
  -1 -14  -4    3.98    8.89
  -1  14  -4    8.33   10.57
  -1  14  -4   11.39   14.43
   1 -14   4   -0.74    8.81
   1 -14   4    7.25   14.23
   1  14   5   39.86   14.76
   1  14   5   31.90   15.25
   1  14   5   16.62   16.37
  -1 -14  -5   32.84   15.42
  -1 -14  -5   22.28   13.14
  -1  14  -5   29.65   17.88
  -1  14  -5   29.77   18.09
   1 -14   5   18.15   15.06
   1 -14   5   23.71   16.03
   1  14   6  106.59   31.52
   1  14   6   89.80   33.04
   1  14   6   27.49   28.21
  -1 -14  -6   53.32   25.23
  -1  14  -6   88.00   35.64
  -1  14  -6   79.75   30.27
   1 -14   6   48.95   32.99
   1 -14   6   84.34   27.44
   1  14   7    4.20    8.42
   1  14   7   18.79   19.27
  -1 -14  -7   -0.07   10.51
  -1  14  -7   -0.58   21.51
  -1  14  -7   -3.82   22.55
   1 -14   7    7.82   14.53
   1  14   8 1782.19  623.97
   1  14   8 1052.88  501.76
  -1  14  -8 1921.14  626.50
   1 -14   8 1391.78  502.05
   1  14   9 1465.54  506.90
   1  14   9 1084.06  408.29
  -1  14  -9 1284.02  508.83
   1 -14   9 1299.78  408.83
   1  14  10   29.88   20.45
   1  14  10   24.97   29.97
  -1  14 -10   26.98   23.31
   1 -14  10   36.43   41.01
   1  14  11  357.09  135.09
   1  14  11  337.91  115.68
  -1  14 -11  358.10  137.47
   1 -14  11  333.79  118.16
   1  14  12  428.65  158.06
   1  14  12  419.07  134.79
  -1  14 -12  399.44  160.73
   1 -14  12  374.87  135.58
   1  14  13   34.96   33.80
   1  14  13   44.40   77.31
  -1  14 -13   42.72   38.77
   1  15   0   12.21   10.90
  -1 -15   0    6.64    8.28
  -1  15   0    7.43   10.11
  -1  15   0   14.19    6.51
  -1  15   0    9.59    9.64
   1 -15   0    6.13    7.21
   1 -15   0   14.34   10.27
   1  15   1 1280.89  377.14
  -1 -15  -1  880.72  376.75
  -1  15  -1  993.08  377.63
  -1  15  -1 1238.21  302.32
  -1  15  -1 1284.81  302.94
   1 -15   1  632.02  376.68
   1 -15   1 1131.88  302.87
   1  15   2   85.28   29.67
  -1 -15  -2   65.98   29.45
  -1 -15  -2   60.31   22.64
  -1  15  -2   88.31   31.65
  -1  15  -2   97.32   22.84
  -1  15  -2  106.44   26.24
   1 -15   2   39.89   29.40
   1 -15   2   72.55   26.00
   1  15   3 2361.62  761.04
   1  15   3 2158.15  611.67
  -1 -15  -3 2104.88  761.00
  -1  15  -3 2115.29  762.25
  -1  15  -3 2700.97  612.13
   1 -15   3 1329.60  760.98
   1  15   4  686.27  216.63
   1  15   4  457.89  173.90
  -1 -15  -4  646.60  216.76
  -1 -15  -4  555.94  173.44
  -1  15  -4  658.57  218.42
  -1  15  -4  672.70  174.58
   1 -15   4  356.16  216.63
   1 -15   4  600.36  174.14
   1  15   5  116.67   35.08
   1  15   5   60.44   30.31
  -1 -15  -5  101.34   36.07
  -1 -15  -5   67.49   28.65
  -1  15  -5   86.35   37.60
  -1  15  -5  107.99   32.03
   1 -15   5   57.30   36.03
   1 -15   5   72.19   31.35
   1  15   6  407.66  112.64
   1  15   6  339.94  113.69
   1  15   6  205.43   91.02
  -1 -15  -6  209.01   89.93
  -1  15  -6  379.03  115.11
  -1  15  -6  326.89   92.78
   1 -15   6  167.04  112.91
   1 -15   6  291.15   90.79
   1  15   7  699.29  230.31
   1  15   7  351.86  184.99
  -1  15  -7  794.75  233.29
  -1  15  -7  339.74  185.32
   1 -15   7  546.32  185.71
   1  15   8  643.70  226.52
   1  15   8  350.20  182.26
  -1  15  -8  712.00  229.61
   1 -15   8  488.10  183.34
   1  15   9  415.33  143.40
   1  15   9  310.82  119.12
  -1  15  -9  348.82  145.53
   1 -15   9  331.76  119.82
   1  15  10  258.27   91.21
   1  15  10  215.33   79.88
  -1  15 -10  219.20   94.82
   1 -15  10  187.48   83.37
   1  15  11    4.11   14.41
   1  15  11   13.85   38.44
  -1  15 -11   -3.46   19.48
   1 -15  11  -20.99   49.61
   1  15  12  299.22  107.29
   1  15  12  228.49   96.96
  -1  15 -12  258.11  110.19
   1 -15  12  243.30  105.40
   1  15  13  208.96   80.67
  -1  15 -13  164.28   84.15
   1  16   0   63.85   22.29
  -1 -16   0   32.28   20.16
  -1  16   0   45.44   21.42
  -1  16   0   83.38   16.14
  -1  16   0   71.12   19.15
   1 -16   0   23.37   20.28
   1  16   1 2243.35  648.49
  -1 -16  -1 1436.94  647.97
  -1  16  -1 1710.00  648.83
  -1  16  -1 2121.01  520.57
  -1  16  -1 2344.56  521.35
   1 -16   1 1095.27  647.93
   1 -16   1 2204.90  521.25
   1  16   2 1302.68  385.36
   1  16   2  992.19  309.08
  -1 -16  -2 1001.70  385.11
  -1 -16  -2  880.97  308.64
  -1  16  -2 1212.48  386.34
  -1  16  -2 1229.67  308.87
  -1  16  -2 1244.49  309.65
   1 -16   2  645.46  384.88
   1 -16   2 1069.75  309.35
   1  16   3  696.00  217.09
   1  16   3  697.50  174.67
  -1 -16  -3  556.23  217.07
  -1 -16  -3  558.94  173.70
  -1  16  -3  658.99  218.55
  -1  16  -3  738.05  174.78
   1 -16   3  346.72  216.93
   1 -16   3  681.87  174.52
   1  16   4  868.68  282.09
   1  16   4  678.73  226.97
  -1 -16  -4  937.56  282.43
  -1  16  -4  866.00  284.04
  -1  16  -4  866.40  227.14
   1 -16   4  375.62  281.93
   1 -16   4  712.80  226.58
   1  16   5  320.94   89.08
   1  16   5  206.07   73.46
  -1 -16  -5  291.89   89.59
  -1 -16  -5  149.12   71.15
  -1  16  -5  235.29   91.05
   1 -16   5  129.56   89.01
   1 -16   5  295.90   74.06
   1  16   6  128.96   37.97
   1  16   6   69.00   37.13
  -1 -16  -6   44.75   31.03
  -1  16  -6  116.48   41.51
  -1  16  -6   97.51   37.77
   1 -16   6   87.92   33.69
   1  16   7 1213.41  410.93
   1  16   7  796.09  331.16
  -1  16  -7 1126.74  413.25
   1 -16   7  893.43  330.65
   1  16   8  380.78  135.46
   1  16   8  282.47  113.54
  -1  16  -8  381.53  139.35
   1 -16   8  293.55  111.04
   1  16   9  539.30  181.65
   1  16   9  411.32  148.82
  -1  16  -9  438.17  184.08
   1 -16   9  383.12  149.13
   1  16  10   70.56   29.70
   1  16  10   43.12   46.56
  -1  16 -10   56.66   36.96
   1 -16  10   65.74   46.39
   1  16  11   95.58   39.13
   1  16  11   77.35   58.07
  -1  16 -11   98.73   43.79
   1 -16  11   53.05   57.30
   1  16  12   63.82   32.44
   1  16  12   14.97   63.53
  -1  16 -12   53.17   38.49
   1  17   0  733.19  202.18
  -1 -17   0  348.17  201.15
  -1  17   0  560.29  202.11
  -1  17   0  729.46  161.23
  -1  17   0  765.51  162.20
   1 -17   0  365.41  201.12
   1  17   1  104.55   31.70
  -1 -17  -1   52.56   30.25
  -1  17  -1   83.87   31.74
  -1  17  -1  105.00   23.42
   1 -17   1   40.09   29.80
   1 -17   1   87.71   26.66
   1  17   2  639.22  178.07
  -1 -17  -2  400.27  177.67
  -1  17  -2  561.15  179.11
  -1  17  -2  597.17  143.30
   1 -17   2  304.26  177.48
   1 -17   2  496.64  142.58
   1  17   3   13.00    8.94
   1  17   3   12.68   17.61
  -1 -17  -3    9.30    9.93
  -1 -17  -3    1.01   11.19
  -1  17  -3   17.52   14.87
  -1  17  -3    8.68    7.67
  -1  17  -3   19.56   14.79
   1 -17   3    5.51    9.48
   1 -17   3    4.86   16.27
   1  17   4  401.06  117.49
   1  17   4  346.67   96.11
  -1 -17  -4  359.51  117.87
  -1 -17  -4  260.12   93.76
  -1  17  -4  367.71  119.51
   1 -17   4  162.89  117.32
   1 -17   4  294.90   94.48
   1  17   5   22.95   11.34
   1  17   5   31.97   22.35
  -1 -17  -5   12.12   14.84
  -1  17  -5   19.78   15.48
  -1  17  -5   14.01   20.32
   1 -17   5   29.32   25.86
   1  17   6  995.08  278.46
   1  17   6  622.37  224.82
  -1 -17  -6  401.29  223.02
  -1  17  -6  913.89  280.96
  -1  17  -6  703.28  225.04
   1 -17   6  782.57  224.66
   1  17   7  168.36   60.58
   1  17   7  116.74   56.61
  -1  17  -7  138.08   63.25
   1  17   8   30.08   16.54
   1  17   8   16.52   35.29
  -1  17  -8   28.98   29.17
   1 -17   8   23.02   30.46
   1  17   9   35.29   20.45
   1  17   9   30.48   39.50
  -1  17  -9   29.31   24.71
   1 -17   9   27.13   29.18
   1  17  10   21.16   15.96
   1  17  10   17.34   45.42
  -1  17 -10   11.18   22.87
   1 -17  10   15.67   39.67
   1  17  11  348.98  112.00
   1  17  11   -7.81   95.66
  -1  17 -11  322.37  114.95
   1 -17  11  204.79  100.23
   1  17  12  290.60   95.33
   1  17  12   -5.84   88.40
  -1  17 -12  220.92   99.56
   1  18   0   30.61   16.53
  -1 -18   0   12.92   12.74
  -1  18   0   26.28   15.56
  -1  18   0   41.84   10.67
  -1  18   0   29.07   15.18
   1 -18   0   15.99   12.94
   1  18   1  199.48   59.04
  -1 -18  -1  103.81   57.49
  -1  18  -1  159.81   58.77
  -1  18  -1  189.72   45.35
  -1  18  -1  219.75   48.86
   1 -18   1   86.97   57.22
   1 -18   1  176.42   47.82
   1  18   2  620.34  176.11
  -1 -18  -2  301.44  175.40
  -1  18  -2  545.29  177.07
  -1  18  -2  586.39  140.28
  -1  18  -2  569.33  141.68
   1 -18   2  284.16  175.34
   1 -18   2  608.22  142.19
   1  18   3  156.10   44.09
  -1 -18  -3   85.19   43.60
  -1 -18  -3   71.78   34.32
  -1  18  -3  170.78   46.50
  -1  18  -3  141.04   34.53
   1 -18   3   58.59   43.39
   1 -18   3  135.29   37.43
   1  18   4   39.46   14.68
   1  18   4   33.68   23.00
  -1 -18  -4   16.53   15.72
  -1  18  -4   36.52   18.40
  -1  18  -4   28.82   11.82
  -1  18  -4   34.09   23.37
   1 -18   4   14.80   14.56
   1 -18   4   34.27   18.81
   1  18   5    5.08   11.47
   1  18   5   11.47   27.22
  -1 -18  -5   -0.27   13.99
  -1  18  -5    9.81   12.45
  -1  18  -5    7.13   24.97
   1 -18   5    6.89   19.96
   1  18   6  820.94  287.51
   1  18   6  585.55  232.50
  -1  18  -6  803.04  289.83
   1 -18   6  681.89  232.16
   1  18   7  190.25   63.83
   1  18   7  110.67   60.88
  -1  18  -7  156.30   67.26
   1 -18   7  118.54   54.27
   1  18   8  105.74   39.95
   1  18   8   74.36   41.85
  -1  18  -8  116.47   49.03
   1 -18   8   52.37   38.83
   1  18   9   76.77   28.69
   1  18   9   40.96   45.34
  -1  18  -9   51.52   36.79
   1 -18   9   36.88   41.42
   1  18  10   45.80   22.11
   1  18  10   26.91   40.99
  -1  18 -10   36.50   28.06
   1 -18  10   17.22   44.27
   1  18  11   37.07   21.52
  -1  18 -11   32.26   31.63
   1 -18  11    6.82   49.71
   1  18  12  205.27   82.00
  -1  18 -12  187.20   86.62
   1  19   0  333.35   91.57
  -1 -19   0  141.74   90.17
  -1  19   0  242.57   91.27
  -1  19   0  359.91   72.16
  -1  19   0  343.04   73.72
   1 -19   0  143.03   90.06
   1  19   1   17.14   14.19
  -1 -19  -1    5.83    9.90
  -1  19  -1    8.50   13.16
  -1  19  -1   33.69   10.75
  -1  19  -1   19.68   18.88
   1 -19   1    6.55   11.26
   1  19   2  201.97   59.17
  -1 -19  -2   89.57   57.84
  -1  19  -2  178.23   60.05
  -1  19  -2  200.47   45.71
  -1  19  -2  229.81   49.48
   1 -19   2   71.87   57.75
   1 -19   2  188.25   50.06
   1  19   3  753.27  183.49
   1  19   3  479.16  147.37
   1  19   3  475.52  146.98
  -1 -19  -3  327.99  145.78
  -1  19  -3  638.87  184.83
  -1  19  -3  702.56  148.18
   1 -19   3  237.94  182.58
   1 -19   3  577.89  147.33
   1  19   4   13.10   14.46
   1  19   4    0.05   25.35
  -1 -19  -4    5.40   11.36
  -1  19  -4    5.42   13.66
  -1  19  -4   18.06   20.43
   1 -19   4   11.93   21.28
   1  19   5   81.79   24.37
   1  19   5   66.82   32.34
  -1 -19  -5    9.85   21.07
  -1  19  -5   71.11   28.38
  -1  19  -5   64.67   30.78
   1 -19   5   38.83   22.58
   1  19   6  222.70   80.37
   1  19   6  215.31   71.76
  -1  19  -6  219.24   83.76
   1 -19   6  147.40   68.71
   1  19   7  255.27   89.30
   1  19   7  207.70   81.15
  -1  19  -7  228.55   92.66
   1 -19   7  173.05   77.49
   1  19   8   82.17   33.59
   1  19   8   82.00   40.48
  -1  19  -8   92.00   44.64
   1 -19   8   45.06   39.47
   1  19   9    3.41   12.00
   1  19   9   11.04   44.45
  -1  19  -9   11.52   33.42
   1 -19   9    7.56   39.48
   1  19  10   66.09   28.93
   1  19  10    9.25   54.30
  -1  19 -10   67.24   34.03
   1 -19  10   30.44   51.54
   1  19  11  210.64   70.38
   1  19  11   10.06   80.59
  -1  19 -11  139.72   74.17
   1  20   0   58.42   22.04
  -1 -20   0   13.78   16.33
  -1  20   0   38.90   17.91
  -1  20   0   62.32   21.59
   1 -20   0   19.02   16.31
   1  20   1  955.50  298.52
  -1  20  -1  908.85  299.04
  -1  20  -1 1017.84  238.66
  -1  20  -1 1058.91  240.64
   1 -20   1  375.44  297.38
   1  20   2  436.13  148.62
  -1  20  -2  407.23  149.40
  -1  20  -2  360.06  117.57
   1 -20   2  349.44  119.16
   1  20   3  316.15   99.70
   1  20   3  128.43   79.55
  -1  20  -3  264.29  101.22
  -1  20  -3  252.89   78.61
  -1  20  -3  224.60   81.88
   1 -20   3  246.79   81.85
   1  20   4  281.71   75.82
   1  20   4  234.65   65.59
   1  20   4  114.96   61.97
  -1 -20  -4   76.20   59.19
  -1  20  -4  288.86   78.88
  -1  20  -4  210.15   59.40
  -1  20  -4  219.47   64.95
   1  20   5  183.04   53.55
   1  20   5  116.41   53.54
  -1  20  -5  153.15   57.53
  -1  20  -5   99.55   41.40
   1 -20   5   99.61   47.63
   1  20   6   41.67   20.86
   1  20   6   40.66   38.22
  -1  20  -6   40.16   25.25
   1 -20   6   23.62   22.60
   1  20   7  436.74  145.35
   1  20   7  329.09  124.47
  -1  20  -7  375.68  148.18
   1 -20   7  263.06  120.37
   1  20   8  824.35  268.69
   1  20   8  535.69  219.76
  -1  20  -8  776.68  272.49
   1 -20   8  409.33  218.77
   1  20   9   91.45   32.72
   1  20   9    5.61   52.67
  -1  20  -9   72.68   44.93
   1 -20   9   54.60   44.31
   1  20  10   71.24   28.92
   1  20  10   13.32   59.76
  -1  20 -10   50.99   36.05
   1  20  11   19.66   27.73
  -1  20 -11   26.85   40.02
   1  21   0   69.23   31.45
  -1  21   0   46.27   29.78
  -1  21   0   85.66   24.12
  -1  21   0   54.82   29.27
   1  21   1   27.14   18.72
  -1  21  -1   20.62   18.50
  -1  21  -1   39.65   15.36
  -1  21  -1   35.11   24.96
   1  21   2   51.02   24.89
  -1  21  -2   48.24   29.07
  -1  21  -2   54.58   18.89
   1  21   3  145.41   46.11
  -1  21  -3  136.82   49.43
  -1  21  -3   95.11   34.98
  -1  21  -3   76.67   42.63
   1 -21   3   75.89   40.51
   1  21   4  694.54  149.82
   1  21   4  185.26  121.75
   1  21   4  228.27  119.86
  -1 -21  -4  126.83  118.19
  -1  21  -4  669.47  152.78
  -1  21  -4  411.05  118.46
  -1  21  -4  420.78  122.73
   1 -21   4  387.83  120.91
   1  21   5  213.51   59.91
   1  21   5  157.38   59.81
  -1  21  -5  197.20   62.90
  -1  21  -5   87.88   46.18
   1  21   6  277.31   67.19
  -1  21  -6  227.49   70.58
  -1  21  -6   98.88   51.72
   1 -21   6   91.67   59.50
   1  21   7  867.66  271.74
   1  21   7  633.05  223.67
  -1  21  -7  713.56  274.24
   1 -21   7  384.72  218.21
   1  21   8  532.09  153.28
   1  21   8   14.02  127.76
  -1  21  -8  503.01  158.57
   1 -21   8  149.43  126.87
   1  21   9   29.64   16.20
   1  21   9  -11.70   53.19
  -1  21  -9   23.18   41.46
   1 -21   9   -0.50   44.00
   1  21  10  400.98  116.43
   1  21  10   33.48  109.33
  -1  21 -10  171.74  117.45
   1  21  11  118.35   54.04
  -1  21 -11  106.98   63.76
   1  22   0   20.69   19.96
  -1  22   0    9.26   16.34
  -1  22   0   29.29   13.53
  -1  22   0   15.42   27.59
   1  22   1  432.08  138.28
  -1  22  -1  332.12  138.44
  -1  22  -1  372.68  109.35
  -1  22  -1  174.43  110.94
   1  22   2  603.75  233.03
  -1  22  -2  703.59  234.48
  -1  22  -2  609.51  185.92
  -1  22  -2  538.04  188.12
   1  22   3 1165.58  366.05
  -1  22  -3 1091.29  367.71
  -1  22  -3  790.93  292.46
   1  22   4  138.75   44.12
   1  22   4   34.16   40.98
  -1  22  -4  135.89   48.24
  -1  22  -4   83.25   33.60
   1  22   5  279.32   66.34
   1  22   5  110.83   62.44
  -1  22  -5  241.56   69.29
  -1  22  -5   95.98   51.10
   1 -22   5   85.30   54.74
   1  22   6  118.22   41.89
   1  22   6   79.12   56.59
  -1  22  -6  112.15   46.22
   1 -22   6   41.72   41.20
   1  22   7   65.48   24.43
   1  22   7   46.53   54.29
  -1  22  -7   51.15   27.83
  -1  22  -7   12.24   16.90
   1 -22   7   22.26   39.36
   1  22   8  444.41  122.20
   1  22   8   27.95  111.25
  -1  22  -8  364.28  127.67
   1 -22   8   81.66  101.06
   1  22   9 2202.07  701.68
   1  22   9    1.67  563.78
  -1  22  -9 2000.90  705.21
   1  22  10   18.99   30.04
  -1  22 -10   13.64   45.43
   1  23   0  483.17  144.30
  -1  23   0  327.99  143.20
  -1  23   0  202.16  117.92
   1  23   1  567.99  165.29
  -1  23  -1  425.07  164.65
  -1  23  -1  384.91  130.39
  -1  23  -1  207.86  133.31
   1  23   2   89.68   39.83
  -1  23  -2  100.57   45.16
  -1  23  -2   92.28   31.92
   1  23   3  641.95  220.27
  -1  23  -3  654.71  222.00
  -1  23  -3  513.55  175.44
   1  23   4  949.14  272.78
  -1  23  -4  915.95  275.25
  -1  23  -4  503.77  217.12
   1  23   5  195.46   48.59
  -1  23  -5  143.63   51.72
  -1  23  -5   58.84   36.60
   1 -23   5   91.42   49.83
   1  23   6  549.98  153.26
   1  23   6  148.89  129.58
  -1  23  -6  470.55  156.27
   1 -23   6  120.78  123.49
   1  23   7   39.51   19.42
   1  23   7   18.73   51.67
  -1  23  -7   30.48   24.45
  -1  23  -7    6.15   16.07
   1  23   8  340.40  113.80
   1  23   8  -20.75  106.36
  -1  23  -8  327.89  119.91
   1  23   9  255.91   94.73
  -1  23  -9  197.32  100.96
   1  23  10  379.50  134.80
  -1  23 -10  269.76  143.12
   1  24   0   72.46   48.22
  -1  24   0   82.47   48.10
  -1  24   0  179.20   40.61
   1  24   1 1398.56  475.41
  -1  24  -1 1111.98  475.53
  -1  24  -2   36.67   23.86
  -1  24  -2   10.78   17.48
   1  24   3  129.51   54.13
  -1  24  -3  168.27   56.84
  -1  24  -3  112.37   42.34
   1  24   4  647.63  189.88
  -1  24  -4  678.62  193.12
  -1  24  -4  341.16  150.72
   1  24   5  592.75  121.86
  -1  24  -5  469.87  124.70
  -1  24  -5  136.30   94.40
   1 -24   5  168.78   97.89
   1  24   6  194.40   40.56
   1  24   6   81.97   73.14
  -1  24  -6  137.38   44.63
  -1  24  -6   26.12   28.80
   1 -24   6   30.31   43.53
   1  24   7  656.96  201.52
   1  24   7   17.84  176.84
  -1  24  -7  491.33  204.08
   1  24   8   14.07   19.64
  -1  24  -8   13.02   35.73
   1  24   9  108.24   48.61
  -1  24  -9   96.91   70.03
   1  25   0  463.64  186.52
  -1  25   0  521.93  186.83
   1  25   1   14.51   26.53
  -1  25  -1   13.51   17.52
  -1  25  -1   13.78   19.97
   1  25   2  132.28   47.90
  -1  25  -2  124.96   49.25
  -1  25  -2   74.54   37.23
   1  25   3  191.46   66.73
  -1  25  -3  222.84   69.46
  -1  25  -3  117.64   52.65
   1  25   4  130.23   43.83
  -1  25  -4  159.07   49.32
  -1  25  -4   58.50   34.92
   1  25   5  131.69   33.72
   1  25   5   11.71   55.97
  -1  25  -5  123.84   40.79
  -1  25  -5   14.23   25.27
   1  25   6  397.83  141.96
  -1  25  -6  306.35  144.81
   1  25   7    3.87   18.52
  -1  25  -7    1.62   23.06
   1  25   8   64.06   34.81
  -1  25  -8   55.18   58.61
   1  25   9    0.76   23.49
  -1  25  -9   -4.65   67.50
   1  26   0    3.83   20.29
  -1  26   0    4.27   16.01
  -1  26   0    4.15   22.36
   1  26   1   86.32   34.39
  -1  26  -1   59.30   32.63
  -1  26  -1   33.45   28.64
   1  26   2  931.92  349.36
  -1  26  -2  928.05  350.79
   1  26   3    7.62   17.44
  -1  26  -3    2.66   22.30
   1  26   4   45.95   28.06
  -1  26  -4   61.14   34.51
   1  26   5    3.45   17.55
  -1  26  -5   15.60   23.16
   1  26   6  277.09  108.42
  -1  26  -6  274.66  111.78
   1  26   7   37.39   26.73
  -1  26  -7   43.16   31.68
   1  26   8  189.55   78.97
  -1  26  -8  179.40   93.81
   1  27   0  374.73  152.58
  -1  27   0  421.29  153.03
   1  27   1    6.30   24.79
  -1  27  -1    7.77   23.90
   1  27   2  292.25  118.67
  -1  27  -2  314.61  119.94
   1  27   3  169.74   66.58
  -1  27  -3  136.08   67.20
   1  27   4  166.81   75.04
  -1  27  -4  219.92   80.14
   1  27   5   -1.77   18.33
  -1  27  -5    1.23   23.13
   1  27   6  395.15  146.57
  -1  27  -6  347.48  149.37
   1  27   7   78.64   43.33
  -1  27  -7   98.42   61.05
   1  28   0    4.28   19.08
  -1  28   0   -2.15   22.22
   1  28   1  693.79  315.42
  -1  28  -1 1014.59  317.49
   1  28   2    0.76   26.11
  -1  28  -2   15.79   27.46
   1  28   3  354.86  136.45
  -1  28  -3  338.01  138.65
   1  28   4   39.30   29.93
  -1  28  -4   45.37   34.50
   1  28   5  134.86   62.37
  -1  28  -5  168.32   66.71
   1  28   6  171.96   75.27
  -1  28  -6  133.10   75.36
   1  28   7  376.34  133.76
  -1  28  -7  256.00  137.89
   1  29   0  105.88   49.06
  -1  29   0  104.44   50.41
   1  29   1   29.95   25.54
  -1  29  -1   32.36   32.10
   1  29   2    2.90   24.27
  -1  29  -2   13.76   29.64
   1  29   3   -2.31   33.20
  -1  29  -3   -1.37   27.90
   1  29   4  866.19  294.71
  -1  29  -4  627.71  295.01
   1  29   5   60.09   42.77
  -1  29  -5   53.76   45.35
   1  29   6  271.95  102.79
  -1  29  -6  168.25  103.30
   1  30   0   10.32   22.07
  -1  30   0   22.37   27.23
   1  30   1  159.51   75.74
  -1  30  -1  206.93   79.70
   1  30   2    8.23   33.81
  -1  30  -2   -3.44   28.77
   1  30   3  506.66  206.91
  -1  30  -3  576.93  209.85
   1  30   4  161.17   73.75
  -1  30  -4  154.96   77.83
   1  30   5  200.51   88.82
   1  31   0  335.96  146.51
  -1  31   0  406.96  147.98
   1  31   1  131.22   62.75
  -1  31  -1  130.20   63.66
   1  31   2   44.14   38.20
  -1  31  -2   57.76   46.59
   1  31   3   74.76   46.64
  -1  31  -3   60.28   54.36
   1  32   0   -5.30   27.33
   2   0   0 6717.50 2146.41
  -2   0   0 7663.51 2146.48
   2   0   1    0.83    5.03
   2   0   1    1.44   13.06
  -2   0  -1    4.69   12.29
   2   0   2   34.25   14.03
   2   0   2   24.42   14.58
   2   0   2   28.71   12.71
  -2   0  -2   29.40   14.03
  -2   0  -2   36.28   13.49
   2   0   3   10.69    9.52
   2   0   3   -1.94   10.26
  -2   0  -3    4.62    6.81
  -2   0  -3   -1.93    7.78
   2   0   4 4233.11 1541.79
   2   0   4 4055.26 1239.11
  -2   0  -4 4150.28 1541.23
  -2   0  -4 4156.85 1239.16
   2   0   5    2.86    7.12
   2   0   5   -5.04   14.06
  -2   0  -5   10.05    9.14
  -2   0  -5   -1.55   11.04
   2   0   6  508.05  225.86
   2   0   6  630.74  181.33
  -2   0  -6  655.89  225.63
  -2   0  -6  608.86  180.97
   2   0   7    0.12    8.24
   2   0   7    1.96   16.84
  -2   0  -7    2.64    9.57
  -2   0  -7    5.59   13.29
   2   0   8  239.05   91.66
   2   0   8  240.49   75.06
  -2   0  -8  236.28   91.95
   2   0   9    0.16   14.15
   2   0   9    1.40   24.05
   2   0  10 1979.08  743.39
   2   0  10 2067.30  598.56
   2   0  11   -0.99   17.46
   2   0  11   16.95   38.27
   2   0  12   32.41   22.34
   2   0  12   33.95   46.32
   2   0  13    3.73   14.61
   2   0  13    0.93   45.77
   2   1   0  332.74  111.43
  -2   1   0  390.43  111.34
   2  -1   0  390.75  111.61
   2   1   1  135.25   62.51
   2   1   1  172.19   51.16
  -2  -1  -1  204.39   50.89
  -2   1  -1  172.26   63.17
  -2   1  -1  194.39   51.00
   2  -1   1  178.27   63.59
   2  -1   1  178.52   51.16
   2   1   2  192.45   85.60
   2   1   2  352.09   87.03
   2   1   2  189.91   68.86
  -2  -1  -2  256.30   68.94
  -2   1  -2  219.37   86.25
  -2   1  -2  238.97   69.25
   2  -1   2  206.66   86.61
   2  -1   2  215.50   69.03
   2   1   3   10.43    8.33
   2   1   3    9.12   13.61
   2   1   3    4.13    8.98
  -2  -1  -3    5.77    8.10
  -2   1  -3    7.64    6.97
  -2   1  -3    5.36    9.39
   2  -1   3    5.92    6.87
   2  -1   3    5.42    8.95
   2   1   4  862.13  323.25
   2   1   4 1163.26  324.70
   2   1   4  732.58  259.53
  -2  -1  -4  963.16  323.97
  -2  -1  -4  777.88  259.57
  -2   1  -4  781.28  323.77
  -2   1  -4  886.54  259.72
   2  -1   4  794.83  324.31
   2  -1   4  751.56  259.57
   2   1   5 3764.79 1325.13
   2   1   5 4379.92 1326.47
   2   1   5 3417.86 1065.69
  -2  -1  -5 3820.58 1325.78
  -2  -1  -5 3635.97 1065.66
  -2   1  -5 3281.50 1325.60
  -2   1  -5 3589.07 1065.66
   2  -1   5 2950.52 1325.96
   2  -1   5 2907.78 1065.50
   2   1   6    0.98   10.92
   2   1   6    4.65   13.21
   2   1   6    2.25   15.49
  -2  -1  -6    0.12    8.99
  -2  -1  -6    2.18   13.01
  -2   1  -6    1.07    8.31
  -2   1  -6   66.13   13.88
   2  -1   6    1.24    8.52
   2  -1   6    9.67   16.09
   2   1   7    5.08   11.77
   2   1   7    7.23    8.62
   2   1   7    6.41   17.57
  -2  -1  -7    7.35   16.61
  -2   1  -7    2.77   10.86
  -2   1  -7    0.38   12.72
   2  -1   7   -2.94    8.84
   2  -1   7   -2.93   17.14
   2   1   8   21.75   16.32
   2   1   8   22.09   18.93
  -2   1  -8   17.72   14.39
   2  -1   8   21.29   20.97
   2   1   9  565.30  222.38
   2   1   9  606.27  179.96
  -2   1  -9  602.84  223.10
   2  -1   9  648.32  179.95
   2   1  10  127.06   54.76
   2   1  10  111.29   49.65
  -2   1 -10  138.09   55.13
   2  -1  10  146.91   55.48
   2  -1  10  123.25   49.75
   2   1  11  270.42  109.23
   2   1  11  282.41   93.12
   2  -1  11  290.61  110.10
   2  -1  11  304.78   95.35
   2   1  12  128.84   56.94
   2   1  12  126.86   57.76
   2  -1  12  146.58   58.42
   2  -1  12  140.18   62.28
   2   1  13   -4.92   46.69
   2  -1  13   -5.95   45.74
   2   2   0  166.26   83.89
   2   2   0  316.95   68.17
  -2  -2   0  263.03   67.72
  -2   2   0  287.70   67.84
   2  -2   0  236.52   67.97
   2   2   1  170.62   78.75
   2   2   1  287.50   79.72
   2   2   1  174.20   63.27
  -2  -2  -1  260.00   63.77
  -2   2  -1  174.93   79.44
  -2   2  -1  274.40   63.96
   2  -2   1  227.92   79.66
   2  -2   1  192.74   63.92
   2   2   2   54.07   22.06
   2   2   2   61.19   23.02
   2   2   2   53.40   19.23
  -2  -2  -2   60.14   18.44
  -2   2  -2   52.18   22.79
  -2   2  -2   57.14   19.22
   2  -2   2   51.45   23.15
   2  -2   2   56.35   19.06
   2   2   3  578.75  228.32
   2   2   3  953.28  229.80
  -2  -2  -3  622.99  183.45
  -2   2  -3  507.48  228.98
  -2   2  -3  567.22  183.33
   2  -2   3  550.46  229.39
   2  -2   3  541.96  183.39
   2   2   4 1082.42  378.49
   2   2   4 1059.31  304.23
  -2  -2  -4 1032.46  304.15
  -2   2  -4  949.62  379.24
  -2   2  -4  961.61  304.11
   2  -2   4  944.65  379.65
   2  -2   4 1006.55  304.17
   2   2   5   20.56   11.89
   2   2   5   27.01   16.90
   2   2   5   10.86   17.07
  -2  -2  -5    9.31   10.55
  -2   2  -5   11.92   11.10
  -2   2  -5    8.06   10.97
   2  -2   5   20.29   11.80
   2  -2   5   17.69   12.19
   2   2   6    5.06   10.70
   2   2   6    4.00   16.09
   2   2   6    4.89   15.36
  -2  -2  -6    2.23   12.73
  -2   2  -6    3.88    7.99
  -2   2  -6    6.52   10.16
   2  -2   6    7.84    8.58
   2  -2   6    4.89   15.00
   2   2   7   55.56   23.36
   2   2   7   55.71   30.01
   2   2   7   54.14   22.74
  -2  -2  -7   39.95   20.55
  -2   2  -7   54.25   22.64
  -2   2  -7   39.62   20.47
   2  -2   7   38.34   23.41
   2  -2   7   46.91   25.69
   2   2   8  395.95  140.24
   2   2   8  339.31  112.92
  -2   2  -8  324.77  140.66
   2  -2   8  414.36  114.43
   2   2   9  461.33  175.97
   2   2   9  472.73  143.00
  -2   2  -9  459.26  176.81
   2  -2   9  497.46  143.03
   2   2  10 1428.04  546.04
   2   2  10 1346.39  439.76
  -2   2 -10 1530.01  547.03
   2  -2  10 1549.71  440.10
   2   2  11   20.26   17.92
   2   2  11   13.43   32.68
  -2   2 -11   20.43   16.71
   2  -2  11   26.58   22.03
   2  -2  11   24.73   32.31
   2   2  12    6.38   16.55
   2   2  12    8.68   37.28
   2  -2  12    5.27   21.21
   2  -2  12   19.80   43.85
   2   2  13   89.79   46.08
   2   2  13   67.47   56.32
   2  -2  13   90.62   45.42
   2  -2  13   58.10   53.82
   2   3   0  707.79  289.77
   2   3   0  867.10  290.49
   2   3   0  875.30  233.02
  -2  -3   0  997.08  233.08
  -2   3   0  770.42  290.57
  -2   3   0  972.92  233.13
   2  -3   0  638.49  289.98
   2  -3   0  813.61  233.07
   2   3   1   29.11   15.23
   2   3   1   49.97   16.19
   2   3   1   36.22   14.60
  -2  -3  -1   43.24   14.36
  -2   3  -1   36.47   16.40
  -2   3  -1   42.77   14.99
   2  -3   1   34.03   16.20
   2  -3   1   52.52   16.78
   2   3   2  175.32   82.47
   2   3   2  271.46   83.49
   2   3   2  225.34   66.51
  -2  -3  -2  245.27   66.50
  -2   3  -2  219.49   83.43
  -2   3  -2  256.76   67.14
   2  -3   2  222.83   83.53
   2  -3   2  220.44   66.55
   2   3   3  196.32   76.30
   2   3   3  265.22   77.66
   2   3   3  172.50   61.50
  -2  -3  -3  208.91   61.36
  -2   3  -3  170.79   77.13
  -2   3  -3  191.37   61.56
   2  -3   3  236.54   77.99
   2  -3   3  156.74   61.27
   2   3   4   28.38   17.14
   2   3   4   51.02   20.74
   2   3   4   37.94   18.95
  -2  -3  -4   45.82   15.14
  -2   3  -4   39.14   18.00
  -2   3  -4   46.58   16.13
   2  -3   4   47.56   19.37
   2  -3   4   39.15   15.77
   2   3   5   18.50   11.40
   2   3   5   26.51   15.31
   2   3   5   28.50   17.59
  -2  -3  -5   27.33   13.90
  -2   3  -5   17.48   12.50
  -2   3  -5   20.47   13.41
   2  -3   5   18.40   12.43
   2  -3   5   19.29   14.24
   2   3   6  554.13  211.90
   2   3   6  769.01  214.05
   2   3   6  540.77  170.55
  -2  -3  -6  495.86  170.20
  -2   3  -6  556.03  212.77
  -2   3  -6  510.59  170.14
   2  -3   6  490.65  213.10
   2  -3   6  597.09  170.44
   2   3   7  217.24   73.14
   2   3   7  233.04   76.47
   2   3   7  183.51   59.47
  -2  -3  -7  161.76   59.73
  -2   3  -7  193.33   73.81
  -2   3  -7  144.42   59.68
   2  -3   7  135.56   73.97
   2  -3   7  199.14   60.13
   2   3   8    1.95    9.96
   2   3   8    1.79   15.86
  -2   3  -8    4.78    9.59
   2  -3   8   -0.27   18.66
   2   3   9  383.43  152.79
   2   3   9  407.03  124.82
  -2   3  -9  430.83  154.14
   2  -3   9  416.33  125.73
   2   3  10    4.76   13.01
   2   3  10   16.60   33.95
  -2   3 -10    3.96   13.82
   2  -3  10   13.51   32.62
   2   3  11   99.69   45.92
   2   3  11  115.16   46.80
   2  -3  11  121.17   46.19
   2  -3  11   81.08   45.42
   2   3  12   56.59   29.18
   2   3  12   59.28   42.89
   2  -3  12   54.53   32.37
   2   3  13   62.50   33.56
   2   3  13   24.72   51.90
   2  -3  13   51.24   34.31
   2  -3  13   26.18   44.69
   2   4   0   33.56   14.43
   2   4   0   43.81   14.90
  -2  -4   0   52.95   15.39
  -2   4   0   41.10   13.18
   2  -4   0   22.19   14.62
   2  -4   0   52.08   16.81
   2   4   1    1.11    3.22
   2   4   1    5.53    3.81
   2   4   1   -2.85    8.50
  -2  -4  -1    2.86    6.55
  -2   4  -1    1.62    5.01
  -2   4  -1   -0.03    8.14
   2  -4   1   -0.67   13.62
   2   4   2  130.30   22.53
   2   4   2   10.45   22.69
   2   4   2    5.88   18.47
  -2  -4  -2   10.78   18.24
  -2   4  -2    7.24   22.65
  -2   4  -2   10.15   20.02
   2  -4   2   53.40   21.24
   2   4   3  100.15   42.34
   2   4   3  183.32   43.90
   2   4   3   97.81   34.78
  -2  -4  -3  109.49   34.68
  -2   4  -3   93.86   43.39
  -2   4  -3  107.71   34.42
   2  -4   3   96.31   43.70
   2  -4   3   95.59   34.56
   2   4   4  189.96   79.94
   2   4   4  270.72   81.36
   2   4   4  210.95   65.32
  -2   4  -4  208.39   64.43
   2  -4   4  219.76   81.79
   2  -4   4  190.21   64.35
   2   4   5  783.56  308.18
   2   4   5 1133.58  309.79
   2   4   5  856.25  248.08
  -2  -4  -5  842.74  247.74
  -2   4  -5  680.24  309.06
  -2   4  -5  752.23  247.69
   2  -4   5  863.37  309.78
   2  -4   5  717.93  247.56
   2   4   6   10.17    9.29
   2   4   6   15.18   15.99
   2   4   6   17.58   13.41
  -2  -4  -6    2.68   13.83
  -2   4  -6   11.41   10.77
  -2   4  -6   14.43   11.40
   2  -4   6    8.10   14.01
   2  -4   6    7.80   14.36
   2   4   7   26.84   16.87
   2   4   7   41.01   23.39
   2   4   7   28.80   17.43
  -2  -4  -7   28.85   18.43
  -2   4  -7   27.17   17.22
  -2   4  -7   23.61   17.32
   2  -4   7   43.29   20.66
   2  -4   7   35.28   20.12
   2   4   8    2.69    9.89
   2   4   8    0.47   19.80
  -2   4  -8    1.26    9.43
   2   4   9  222.61   88.86
   2   4   9  196.94   76.15
  -2   4  -9  250.69   90.18
   2  -4   9  241.04   74.34
   2   4  10  193.14   77.51
   2   4  10  174.46   67.13
  -2   4 -10  203.05   78.76
   2  -4  10  220.46   67.11
   2   4  11  568.66  214.27
   2   4  11  535.65  176.51
  -2   4 -11  560.97  215.65
   2  -4  11  608.37  174.99
   2   4  12   14.58   18.87
   2   4  12    5.37   38.76
  -2   4 -12   16.56   19.99
   2  -4  12   31.95   25.00
   2  -4  12   21.06   34.78
   2   4  13   27.90   27.25
   2   4  13    7.81   49.74
   2  -4  13   23.35   28.63
   2  -4  13   12.67   37.66
   2   5   0  310.61  116.59
   2   5   0  401.27   93.85
  -2  -5   0  311.25  116.75
  -2   5   0  342.80  117.61
  -2   5   0  388.42   93.80
   2  -5   0  240.75  116.60
   2  -5   0  342.38   94.14
   2   5   1  236.96  109.58
   2   5   1  329.21  110.34
   2   5   1  303.63   87.94
  -2  -5  -1  325.16   88.06
  -2   5  -1  333.30  110.97
  -2   5  -1  332.52   88.24
   2  -5   1  289.09  110.08
   2  -5   1  303.42   88.50
   2   5   2  386.16  156.06
   2   5   2  595.56  157.11
   2   5   2  357.28  125.31
  -2  -5  -2  430.55  125.35
  -2   5  -2  339.74  157.07
  -2   5  -2  480.24  125.95
   2  -5   2  327.42  156.80
   2  -5   2  489.78  126.15
   2   5   3   51.27   11.08
   2   5   3   21.76   11.82
   2   5   3    1.66   11.37
  -2  -5  -3    2.47   11.01
  -2   5  -3    0.56   11.85
  -2   5  -3    4.24   10.00
   2  -5   3    8.71   11.30
   2  -5   3    3.33   11.35
   2   5   4  106.41   44.10
   2   5   4  187.20   45.94
   2   5   4  122.56   36.95
  -2  -5  -4  113.25   36.12
  -2   5  -4   89.06   45.26
  -2   5  -4  106.57   35.90
   2  -5   4   99.96   45.42
   2  -5   4   92.77   36.00
   2   5   5  764.25  283.18
   2   5   5  880.75  284.39
   2   5   5  808.17  228.00
  -2  -5  -5  735.13  227.67
  -2   5  -5  685.72  284.19
  -2   5  -5  752.04  227.73
   2  -5   5  708.57  284.51
   2  -5   5  726.44  227.57
   2   5   6  103.50   42.60
   2   5   6  142.83   45.36
   2   5   6  102.97   36.49
  -2  -5  -6   98.49   35.70
  -2   5  -6  103.46   43.65
  -2   5  -6   88.47   34.75
   2  -5   6  111.04   44.69
   2  -5   6  111.24   35.30
   2   5   7  365.70  118.68
   2   5   7  336.15  120.18
   2   5   7  290.91   96.00
  -2  -5  -7  220.51   95.05
  -2   5  -7  311.76  119.65
  -2   5  -7  273.11   95.64
   2  -5   7  275.28  120.19
   2  -5   7  351.57   95.85
   2   5   8    3.14    9.38
   2   5   8    1.90   15.42
  -2   5  -8    2.07    9.82
   2  -5   8    2.45   18.02
   2   5   9  837.21  313.67
   2   5   9  697.62  252.78
  -2   5  -9  890.03  315.19
   2  -5   9  867.94  253.03
   2   5  10    1.77   12.41
   2   5  10    0.72   28.64
  -2   5 -10   -3.33   20.29
   2  -5  10    2.60   25.27
   2   5  11  223.75   83.37
   2   5  11  189.64   73.83
  -2   5 -11  196.67   85.50
   2  -5  11  226.06   74.79
   2   5  12    7.68   19.58
   2   5  12   14.45   37.88
  -2   5 -12    1.47   17.05
   2  -5  12    7.57   31.80
   2   5  13    6.36   24.05
   2   5  13    8.08   59.58
   2  -5  13    8.08   27.06
   2  -5  13   18.02   37.01
   2   6   0 1328.73  337.07
  -2  -6   0 1284.30  337.01
  -2   6   0 1080.53  420.34
  -2   6   0 1520.82  337.37
   2  -6   0  817.33  419.33
   2  -6   0 1552.28  337.53
   2   6   1   32.14   17.21
   2   6   1   41.50   15.27
  -2  -6  -1   40.76   17.97
  -2  -6  -1   50.47   15.11
  -2   6  -1   53.64   19.09
  -2   6  -1   50.47   15.63
   2  -6   1   42.76   18.14
   2  -6   1   55.18   17.71
   2   6   2   38.84   19.81
   2   6   2   78.56   21.38
   2   6   2   43.56   16.90
  -2  -6  -2   44.25   17.39
  -2   6  -2   60.17   23.77
  -2   6  -2   56.65   20.30
   2  -6   2   36.77   20.60
   2  -6   2   51.26   21.28
   2   6   3  155.90   67.39
   2   6   3  269.89   68.73
   2   6   3  164.64   54.23
  -2  -6  -3  176.09   54.37
  -2   6  -3  171.91   68.66
  -2   6  -3  185.65   54.60
   2  -6   3  156.80   68.36
   2  -6   3  153.88   54.45
   2   6   4 2033.28  740.04
   2   6   4 2570.50  741.14
   2   6   4 1948.91  595.15
  -2  -6  -4 2175.58  595.15
  -2   6  -4 1706.69  740.94
  -2   6  -4 2015.68  595.16
   2  -6   4 1631.70  740.96
   2  -6   4 1684.10  594.95
   2   6   5  155.04   59.24
   2   6   5  206.09   60.97
   2   6   5  145.36   48.90
  -2  -6  -5  149.02   48.23
  -2   6  -5  151.28   60.57
  -2   6  -5  133.42   48.49
   2  -6   5  132.26   60.58
   2  -6   5  148.87   48.20
   2   6   6    8.75    7.93
   2   6   6   11.85   13.87
   2   6   6    9.36   13.16
  -2  -6  -6    1.37   11.65
  -2   6  -6   12.76   11.54
  -2   6  -6    4.26   11.31
   2  -6   6    9.08   10.61
   2  -6   6    3.17   11.80
   2   6   7  133.33   46.42
   2   6   7  124.08   48.36
   2   6   7  114.10   39.06
  -2  -6  -7   74.06   37.64
  -2   6  -7  134.29   47.78
  -2   6  -7  109.14   39.41
   2  -6   7   94.21   47.91
   2  -6   7  138.98   38.98
   2   6   8  100.07   39.71
   2   6   8   76.94   34.02
  -2   6  -8   92.43   40.64
   2  -6   8  116.71   37.62
   2   6   9   62.18   25.41
  -2   6  -9   44.50   29.71
   2  -6   9   51.31   27.23
   2   6  10 2133.31  812.10
   2   6  10 1619.44  653.25
  -2   6 -10 2455.46  813.90
   2  -6  10 2296.02  654.05
   2   6  11  206.92   81.89
   2   6  11  182.50   76.54
  -2   6 -11  218.44   83.70
   2  -6  11  199.57   69.97
   2   6  12   22.76   18.64
   2   6  12   12.23   39.70
  -2   6 -12   13.65   19.78
   2  -6  12   19.12   39.21
   2   6  13  162.69   61.80
   2   6  13   86.79   66.66
  -2   6 -13  151.37   62.84
   2  -6  13  138.06   63.37
   2  -6  13   62.47   63.01
   2   7   0  110.87   75.97
   2   7   0  140.78   60.98
  -2  -7   0   72.14   75.79
  -2   7   0   99.02   76.89
  -2   7   0  277.46   60.77
  -2   7   0  375.27   61.81
   2  -7   0   55.34   75.75
   2   7   1  305.85  117.11
   2   7   1  321.40   93.97
  -2  -7  -1  307.08  117.34
  -2  -7  -1  384.37   94.10
  -2   7  -1  295.24  118.29
  -2   7  -1  344.46   94.25
   2  -7   1  265.73  117.47
   2  -7   1  393.69   94.70
   2   7   2   47.30   17.43
   2   7   2   29.41   15.14
  -2  -7  -2   39.67   15.18
  -2   7  -2   41.59   20.06
  -2   7  -2   50.06   17.54
   2  -7   2   28.60   17.50
   2  -7   2   48.77   19.77
   2   7   3   77.80   31.75
   2   7   3   84.65   27.13
  -2  -7  -3   99.78   26.64
  -2   7  -3  102.29   34.97
  -2   7  -3   82.11   26.39
   2  -7   3   61.67   32.85
   2  -7   3   83.23   26.79
   2   7   4   17.17    9.71
   2   7   4   21.01   11.03
   2   7   4   21.81   15.64
  -2   7  -4   14.71   11.63
  -2   7  -4   12.89   12.06
   2  -7   4   14.73   12.06
   2  -7   4   14.62   12.17
   2   7   5 3590.81 1301.71
   2   7   5 5115.43 1303.34
   2   7   5 3431.55 1047.20
  -2  -7  -5 3227.38 1046.89
  -2   7  -5 3069.15 1302.76
  -2   7  -5 3285.70 1047.08
   2  -7   5 2748.21 1302.71
   2  -7   5 3169.62 1046.99
   2   7   6  530.39  184.99
   2   7   6  569.22  186.45
   2   7   6  462.28  149.22
  -2  -7  -6  408.70  148.40
  -2   7  -6  476.58  186.22
  -2   7  -6  538.47  149.25
   2  -7   6  402.36  186.04
   2  -7   6  505.15  148.83
   2   7   7   43.69   17.09
   2   7   7   25.81   19.50
  -2  -7  -7   24.06   16.13
  -2   7  -7   42.72   19.99
   2  -7   7   28.38   19.14
   2  -7   7   43.36   17.98
   2   7   8   32.22   17.82
   2   7   8   25.62   22.98
  -2   7  -8   28.79   17.41
   2  -7   8   34.22   24.26
   2   7   9  374.48  138.01
   2   7   9  241.35  112.14
  -2   7  -9  383.78  139.69
   2  -7   9  387.28  113.24
   2   7  10  132.98   52.48
   2   7  10   80.47   52.14
  -2   7 -10  146.03   55.29
   2  -7  10  123.61   47.22
   2   7  11  299.97  114.61
   2   7  11  240.87   97.51
  -2   7 -11  310.07  116.82
   2  -7  11  301.39   97.60
   2   7  12  272.31   94.73
   2   7  12  245.53   90.31
  -2   7 -12  197.16   95.95
   2  -7  12  209.33   81.17
   2   7  13    8.67   26.04
   2   7  13    0.00   50.05
  -2   7 -13    3.26   25.15
   2  -7  13   -2.80   36.96
   2   8   0 3743.97 1285.59
   2   8   0 3690.86 1033.67
  -2  -8   0 2992.28 1285.39
  -2  -8   0 4112.79 1033.75
  -2   8   0 3391.81 1286.37
  -2   8   0 4740.65 1033.73
  -2   8   0 4325.08 1034.07
   2  -8   0 2086.91 1285.31
   2  -8   0 4254.15 1034.18
   2   8   1  420.14  153.95
   2   8   1  434.55  123.49
  -2  -8  -1  402.52  154.14
  -2   8  -1  394.77  155.13
  -2   8  -1  628.73  124.31
   2  -8   1  283.16  154.09
   2  -8   1  569.03  124.31
   2   8   2  117.46   48.66
   2   8   2  172.69   49.58
   2   8   2   94.45   39.18
  -2  -8  -2  132.39   49.05
  -2  -8  -2  129.35   39.25
  -2   8  -2  117.40   50.27
  -2   8  -2  158.02   41.25
   2  -8   2   96.48   49.17
   2  -8   2  133.55   41.23
   2   8   3  504.09  246.98
   2   8   3 1108.51  248.46
   2   8   3  627.29  198.50
  -2  -8  -3  756.41  198.71
  -2   8  -3  713.11  248.68
  -2   8  -3  714.43  198.74
   2  -8   3  439.38  247.65
   2  -8   3  678.65  198.81
   2   8   4 2183.95  822.71
   2   8   4 3102.43  824.15
  -2   8  -4 2428.98  824.27
  -2   8  -4 2098.54  661.72
   2  -8   4 1525.26  823.39
   2  -8   4 1986.68  661.62
   2   8   5   80.59   28.25
   2   8   5   89.51   29.83
   2   8   5   67.59   24.74
  -2  -8  -5   47.40   24.40
  -2   8  -5   64.47   30.30
  -2   8  -5   58.92   25.10
   2  -8   5   53.27   29.45
   2  -8   5   70.94   24.20
   2   8   6  788.42  278.39
   2   8   6 1017.29  280.12
   2   8   6  667.37  223.82
  -2  -8  -6  580.17  223.48
  -2   8  -6  740.68  279.71
  -2   8  -6  841.01  224.33
   2  -8   6  538.09  279.28
   2  -8   6  737.05  223.87
   2   8   7   11.65    9.97
   2   8   7    4.04   13.61
   2   8   7    3.68   14.35
  -2  -8  -7    9.03   18.51
  -2   8  -7    7.41   11.25
   2  -8   7    3.89   10.32
   2  -8   7   11.28   16.13
   2   8   8   71.05   27.20
   2   8   8   36.30   31.37
  -2   8  -8   51.31   28.81
   2  -8   8   61.45   26.59
   2   8   9  480.55  173.14
   2   8   9  237.93  140.77
  -2   8  -9  503.45  174.99
   2  -8   9  484.51  140.45
   2   8  10 1157.23  391.78
   2   8  10  607.17  314.97
  -2   8 -10 1036.63  393.05
   2  -8  10 1029.45  315.61
   2   8  11  182.54   68.55
   2   8  11  104.28   61.59
  -2   8 -11  165.42   70.67
   2  -8  11  184.52   60.28
   2   8  12    2.75   19.70
   2   8  12    1.80   40.49
  -2   8 -12    4.43   22.20
   2  -8  12    5.17   39.22
   2   8  13    0.92   30.85
   2   8  13    7.74   52.63
  -2   8 -13    3.31   24.88
   2  -8  13   -3.06   43.26
   2   9   0 1156.52  380.89
   2   9   0 1050.29  305.72
  -2  -9   0  923.24  380.69
  -2  -9   0 1148.53  305.74
  -2   9   0 1039.83  381.72
  -2   9   0 1188.46  305.71
  -2   9   0 1372.46  306.28
   2  -9   0  660.61  380.59
   2  -9   0 1356.12  306.51
   2   9   1  215.98   87.60
   2   9   1  225.50   70.19
  -2   9  -1  236.21   88.95
  -2   9  -1  342.76   71.20
   2  -9   1  187.68   87.79
   2  -9   1  326.27   71.38
   2   9   2  277.11  100.36
   2   9   2  235.89   80.52
  -2  -9  -2  297.33  100.70
  -2   9  -2  269.52  101.82
  -2   9  -2  343.96   81.87
   2  -9   2  184.59  100.68
   2  -9   2  293.68   81.56
   2   9   3  198.15   68.91
   2   9   3  255.52   70.01
   2   9   3  158.52   55.85
  -2  -9  -3  162.63   55.65
  -2   9  -3  174.66   70.50
  -2   9  -3  165.43   55.66
   2  -9   3   95.02   69.18
   2  -9   3  245.90   57.76
   2   9   4 1737.10  587.86
   2   9   4 1861.51  473.02
  -2  -9  -4 1516.75  472.51
  -2   9  -4 1987.17  589.61
  -2   9  -4 1447.17  472.66
   2  -9   4 1016.79  588.42
   2  -9   4 1486.15  472.65
   2   9   5 1165.40  372.41
   2   9   5 1397.03  373.88
   2   9   5  963.92  299.54
  -2  -9  -5  784.57  298.96
  -2   9  -5  923.37  373.68
  -2   9  -5  960.52  299.44
   2  -9   5  633.56  372.93
   2  -9   5  934.88  299.30
   2   9   6  191.48   64.00
   2   9   6  208.36   65.67
   2   9   6  139.41   52.16
  -2  -9  -6  121.38   51.57
  -2   9  -6  165.99   65.79
  -2   9  -6  178.92   53.24
   2  -9   6  123.58   64.94
   2  -9   6  153.17   51.93
   2   9   7    6.22    9.46
   2   9   7    2.22   17.14
  -2   9  -7    0.09   10.77
   2  -9   7    6.01   16.15
   2   9   8  102.25   38.90
   2   9   8   70.30   36.15
  -2   9  -8   88.60   40.54
   2  -9   8   88.73   33.42
   2   9   9  461.43  166.07
  -2   9  -9  410.59  167.75
   2  -9   9  412.66  134.28
   2   9  10  100.98   39.40
   2   9  10   35.20   39.49
  -2   9 -10   95.61   41.18
   2  -9  10   82.58   40.26
   2   9  11  179.87   68.72
   2   9  11   90.26   61.08
  -2   9 -11  181.97   70.29
   2  -9  11  148.86   61.62
   2   9  12   33.45   25.53
   2   9  12   41.64   44.46
  -2   9 -12   30.04   28.03
   2  -9  12   28.87   32.69
   2   9  13   32.28   30.46
   2   9  13   35.51   66.19
  -2   9 -13   20.23   30.11
   2  10   0   60.54   22.87
  -2 -10   0   35.17   22.54
  -2 -10   0   65.65   17.83
  -2  10   0   62.32   23.97
  -2  10   0   60.01   17.62
  -2  10   0   54.61   18.76
   2 -10   0   79.63   23.72
   2  10   1  509.39  167.90
   2  10   1  448.62  134.43
  -2 -10  -1  426.51  167.87
  -2 -10  -1  474.63  134.43
  -2  10  -1  466.61  169.11
  -2  10  -1  557.86  135.18
   2 -10   1  324.28  167.80
   2 -10   1  567.18  135.28
   2  10   2   65.73   24.68
  -2 -10  -2   71.45   30.47
  -2 -10  -2   94.90   25.31
  -2  10  -2   66.14   31.69
  -2  10  -2  133.77   28.52
   2 -10   2   53.83   30.42
   2 -10   2   97.20   27.05
   2  10   3  539.77  188.30
   2  10   3  697.37  189.36
   2  10   3  470.92  151.35
  -2 -10  -3  420.07  151.03
  -2  10  -3  454.37  189.70
  -2  10  -3  450.43  151.38
   2 -10   3  344.51  188.73
   2 -10   3  578.93  151.92
   2  10   4  103.17   38.63
   2  10   4  160.82   40.31
   2  10   4  104.63   34.04
  -2 -10  -4   70.26   32.15
  -2  10  -4   94.64   43.31
  -2  10  -4   80.46   32.44
   2 -10   4   48.92   39.02
   2 -10   4  125.67   35.26
   2  10   5   57.85   24.52
   2  10   5   83.33   26.95
   2  10   5   66.01   23.62
  -2 -10  -5   45.46   22.36
  -2  10  -5   80.46   31.05
  -2  10  -5   54.06   22.19
   2 -10   5   35.06   25.27
   2 -10   5   62.00   23.61
   2  10   6   25.84    8.22
   2  10   6   10.38   12.82
   2  10   6   -6.34   15.18
  -2 -10  -6    2.09   13.83
  -2  10  -6    4.87   13.76
  -2  10  -6    8.44   18.39
   2 -10   6   -1.64   10.37
   2 -10   6    0.29   12.79
   2  10   7   -0.59    9.28
   2  10   7   13.12   17.67
  -2  10  -7    3.45   11.22
   2 -10   7   -0.05   16.22
   2  10   8  738.66  229.66
   2  10   8  205.75  184.22
  -2  10  -8  541.92  230.94
   2 -10   8  592.49  184.81
   2  10   9  631.26  196.22
   2  10   9  172.82  157.60
  -2  10  -9  467.62  197.42
   2 -10   9  497.68  158.03
   2  10  10  263.94   90.07
   2  10  10  113.50   75.77
  -2  10 -10  219.06   92.13
   2 -10  10  223.27   75.66
   2  10  11  157.77   57.45
   2  10  11   69.64   54.87
  -2  10 -11  132.14   59.59
   2 -10  11  126.14   52.88
   2  10  12   18.07   25.26
   2  10  12   -0.94   43.42
  -2  10 -12    8.45   24.26
   2 -10  12    9.16   44.24
   2  11   0  299.54   89.23
  -2 -11   0  156.38   88.73
  -2  11   0  246.60   90.00
  -2  11   0  372.92   70.94
  -2  11   0  327.71   71.71
   2 -11   0  134.84   88.56
   2  11   1   11.16    7.31
   2  11   1   15.27    9.08
  -2 -11  -1    9.96    8.26
  -2 -11  -1    8.84    8.84
  -2  11  -1   14.16   10.57
  -2  11  -1   14.34    7.56
  -2  11  -1   11.16   10.07
   2 -11   1    3.44    7.95
   2 -11   1   15.05   13.56
   2  11   2  365.45  113.82
   2  11   2  257.51   91.17
  -2 -11  -2  307.98  113.95
  -2 -11  -2  277.72   91.03
  -2  11  -2  286.17  115.24
  -2  11  -2  417.05   92.75
   2 -11   2  196.61  113.89
   2 -11   2  335.90   91.96
   2  11   3  145.24   52.75
   2  11   3  167.53   53.70
   2  11   3  126.52   43.01
  -2 -11  -3  120.00   53.14
  -2 -11  -3  118.74   42.93
  -2  11  -3  133.51   54.67
  -2  11  -3  127.27   43.74
   2 -11   3  143.48   43.83
   2  11   4    7.39    8.61
   2  11   4    2.16    8.18
  -2 -11  -4    2.54   11.30
  -2  11  -4    5.35   14.38
  -2  11  -4    6.53   12.34
   2 -11   4    1.10    8.20
   2 -11   4   -3.89   15.55
   2  11   5  351.31  121.97
   2  11   5  449.41  123.59
   2  11   5  328.41   98.83
  -2 -11  -5  252.92   98.29
  -2  11  -5  379.86  125.07
  -2  11  -5  273.49   98.35
   2 -11   5  204.86  122.69
   2 -11   5  292.96   98.57
   2  11   6  283.22   95.41
   2  11   6  332.66   97.49
   2  11   6  217.89   77.70
  -2 -11  -6  198.36   77.49
  -2  11  -6  277.60   97.66
  -2  11  -6  247.82   78.83
   2 -11   6  163.40   96.56
   2 -11   6  264.60   77.98
   2  11   7   19.37   11.08
   2  11   7    4.67   19.07
  -2  11  -7   21.94   15.79
   2 -11   7   30.87   16.37
   2  11   8   12.06   14.79
   2  11   8    6.82   22.69
  -2  11  -8    5.97   15.69
   2 -11   8   10.06   16.97
   2  11   9  118.54   43.66
  -2  11  -9   89.84   45.60
   2 -11   9   79.36   37.66
   2  11  10   34.52   18.70
   2  11  10    2.26   31.18
  -2  11 -10   12.06   20.35
   2 -11  10   11.16   27.15
   2  11  11    1.15   16.40
   2  11  11    5.90   35.49
  -2  11 -11    4.42   19.01
   2 -11  11   -1.01   37.14
   2  11  12   60.37   33.63
   2  11  12   28.96   48.35
  -2  11 -12   62.61   39.70
   2 -11  12   57.55   59.94
   2  12   0  193.40   55.77
   2  12   0  172.52   44.01
  -2 -12   0   85.18   55.06
  -2 -12   0  192.81   43.45
  -2  12   0  178.34   43.66
  -2  12   0  174.54   44.96
   2 -12   0   80.82   54.82
   2 -12   0  155.92   45.53
   2  12   1   74.06   27.73
   2  12   1   71.36   22.32
  -2 -12  -1   45.29   27.40
  -2 -12  -1   69.86   22.30
  -2  12  -1   58.15   28.78
  -2  12  -1  109.27   21.79
  -2  12  -1   78.80   23.26
   2 -12   1   39.67   27.30
   2 -12   1   89.01   26.89
   2  12   2   10.56    9.74
  -2 -12  -2    6.07    9.07
  -2 -12  -2    6.02   10.36
  -2  12  -2    8.10   10.03
  -2  12  -2   19.72   17.18
   2 -12   2    9.06    8.72
   2 -12   2   37.61   16.08
   2  12   3  310.93  100.68
   2  12   3  287.70   81.15
  -2 -12  -3  243.24  101.01
  -2 -12  -3  282.11   80.89
  -2  12  -3  298.04  102.60
  -2  12  -3  287.28   81.43
   2 -12   3  169.65  100.91
   2 -12   3  333.76   82.35
   2  12   4  624.38  207.06
   2  12   4  724.63  208.30
   2  12   4  577.87  166.94
  -2 -12  -4  477.39  166.22
  -2  12  -4  511.62  208.74
  -2  12  -4  488.65  166.57
   2 -12   4  366.95  207.50
   2 -12   4  593.10  167.17
   2  12   5  281.68   88.63
   2  12   5  234.74   72.25
  -2 -12  -5  204.47   71.29
  -2  12  -5  282.58   92.41
  -2  12  -5  178.38   71.56
   2 -12   5  152.05   89.27
   2 -12   5  237.84   72.48
   2  12   6   28.94   12.62
   2  12   6   27.18   17.98
  -2 -12  -6    6.70   15.86
  -2  12  -6   27.40   21.71
   2 -12   6   34.49   18.25
   2  12   7   32.03   15.48
   2  12   7   19.97   20.24
  -2  12  -7   14.14   18.77
   2 -12   7   19.32   17.06
   2  12   8    1.61   11.38
  -2  12  -8    4.83   18.24
   2 -12   8   -9.85   20.39
   2  12   9   -1.34   14.81
   2  12   9   -2.06   32.77
  -2  12  -9   -1.75   16.80
   2 -12   9   -6.37   19.04
   2  12  10  873.84  306.11
   2  12  10  453.65  247.10
  -2  12 -10  891.54  308.59
   2 -12  10  741.85  247.32
   2  12  11   73.58   37.79
   2  12  11   62.62   44.45
  -2  12 -11   84.47   41.84
   2 -12  11   93.08   47.77
   2  12  12   41.39   29.41
  -2  12 -12   44.24   38.41
   2 -12  12   35.54   58.72
   2  13   0   48.58   35.05
  -2 -13   0   16.10   33.87
  -2  13   0   26.77   35.40
  -2  13   0  235.74   27.46
  -2  13   0  200.24   29.77
   2 -13   0   19.01   34.05
   2 -13   0  271.43   31.40
   2  13   1  360.13  112.33
   2  13   1  287.82   89.76
  -2 -13  -1  223.59  112.03
  -2 -13  -1  248.26   89.14
  -2  13  -1  265.95  113.30
  -2  13  -1  431.28   89.55
  -2  13  -1  381.76   90.76
   2 -13   1  165.28  111.82
   2 -13   1  442.61   91.64
   2  13   2  103.23   32.93
   2  13   2   69.59   27.73
  -2 -13  -2   72.01   32.92
  -2 -13  -2   82.46   27.25
  -2  13  -2   86.60   34.98
  -2  13  -2  118.26   29.90
   2 -13   2   54.51   33.32
   2 -13   2  110.29   28.96
   2  13   3   22.63    9.66
   2  13   3   18.64   18.77
  -2 -13  -3   11.38   10.70
  -2 -13  -3   19.27   12.66
  -2  13  -3   21.62   13.36
   2 -13   3   12.73   13.47
   2 -13   3   20.76   15.34
   2  13   4   20.12   10.55
   2  13   4   18.46   12.00
   2  13   4   17.00   25.26
  -2 -13  -4   18.40   13.29
  -2  13  -4   19.62   15.51
  -2  13  -4   15.09   14.93
   2 -13   4   10.79   12.62
   2 -13   4   16.13   15.94
   2  13   5 1157.32  367.58
   2  13   5 1489.75  369.32
   2  13   5  922.56  295.89
  -2 -13  -5  570.88  294.74
  -2  13  -5 1185.61  369.94
  -2  13  -5  904.42  296.10
   2 -13   5  501.65  367.88
   2 -13   5 1034.47  296.06
   2  13   6  178.69   54.71
   2  13   6  112.20   45.40
  -2 -13  -6   47.58   43.63
  -2  13  -6  159.43   59.12
   2 -13   6  145.40   46.02
   2  13   7  574.14  178.18
   2  13   7  240.80  142.80
  -2  13  -7  402.48  180.07
   2 -13   7  407.55  143.70
   2  13   8   80.91   29.45
   2  13   8   23.23   35.46
  -2  13  -8   58.06   32.60
   2 -13   8   59.12   29.85
   2  13   9 1072.14  346.73
   2  13   9  444.25  279.63
  -2  13  -9  893.54  348.74
   2 -13   9  811.90  279.37
   2  13  10   33.23   21.35
   2  13  10   10.74   33.84
  -2  13 -10   34.51   25.38
   2 -13  10   55.34   41.06
   2  13  11  297.93  105.47
   2  13  11  169.55   93.71
  -2  13 -11  255.79  107.99
   2 -13  11  260.31   95.28
   2  13  12  117.21   47.85
   2  13  12   27.20   59.60
  -2  13 -12   96.10   53.27
   2 -13  12   95.22   74.00
   2  14   0 1218.09  313.64
  -2 -14   0  557.69  312.77
  -2  14   0  801.13  313.93
  -2  14   0 1044.67  251.00
  -2  14   0  994.38  251.79
   2 -14   0  599.21  312.79
   2 -14   0 1058.46  252.04
   2  14   1  173.08   53.37
   2  14   1  146.35   42.70
  -2 -14  -1   92.54   52.78
  -2  14  -1  152.61   54.83
  -2  14  -1  155.99   41.63
  -2  14  -1  183.83   44.08
   2 -14   1   92.70   52.88
   2 -14   1  196.32   45.11
   2  14   2    7.56    8.95
   2  14   2    7.16   12.00
  -2 -14  -2    7.69    8.48
  -2  14  -2   10.27   12.48
  -2  14  -2   16.16    8.10
  -2  14  -2   10.81   17.79
   2 -14   2    4.03   11.83
   2 -14   2   19.71   17.24
   2  14   3   14.59    9.40
   2  14   3   23.26   17.18
  -2 -14  -3    6.90    9.71
  -2  14  -3   13.56   11.73
  -2  14  -3   16.07   18.16
   2 -14   3    6.62   11.52
   2 -14   3   26.33   16.81
   2  14   4 1331.31  398.00
   2  14   4 1159.90  398.97
   2  14   4 1372.06  321.29
  -2 -14  -4  739.12  319.15
  -2  14  -4 1132.87  399.84
  -2  14  -4 1108.58  320.36
   2 -14   4  665.52  398.14
   2 -14   4 1208.29  320.36
   2  14   5  898.00  239.92
   2  14   5  775.68  194.89
  -2 -14  -5  333.73  191.88
  -2  14  -5  923.26  242.82
  -2  14  -5  621.53  194.54
   2 -14   5  258.03  239.86
   2 -14   5  735.30  193.51
   2  14   6  131.09   44.26
   2  14   6   85.41   44.83
  -2  14  -6   98.80   51.78
   2 -14   6   73.01   41.23
   2  14   7  283.51   95.05
   2  14   7  187.17   81.45
  -2  14  -7  226.35   97.51
   2 -14   7  200.19   77.72
   2  14   8   32.17   18.83
  -2  14  -8   28.14   22.33
   2 -14   8   17.93   19.92
   2  14   9   95.05   37.39
   2  14   9   44.31   39.57
  -2  14  -9   88.82   39.79
   2 -14   9   60.68   42.29
   2  14  10 1370.05  460.26
   2  14  10  743.28  371.90
  -2  14 -10 1170.81  462.43
   2 -14  10 1194.06  372.12
   2  14  11  874.91  269.24
   2  14  11    9.14  218.50
  -2  14 -11  687.57  271.44
   2 -14  11  623.81  220.54
   2  14  12   -4.67   28.50
  -2  14 -12    3.18   27.14
   2  15   0  533.37  197.98
  -2 -15   0  270.69  197.23
  -2  15   0  411.84  198.40
  -2  15   0  960.12  158.37
  -2  15   0  853.97  159.62
   2 -15   0  260.12  197.15
   2 -15   0 1167.03  160.47
   2  15   1  830.07  250.34
  -2 -15  -1  412.10  249.72
  -2  15  -1  704.15  251.33
  -2  15  -1 1109.53  200.45
  -2  15  -1  726.36  201.18
   2 -15   1  366.61  249.64
   2  15   2    6.08   10.88
   2  15   2    7.64   13.60
  -2  15  -2    8.98   13.95
  -2  15  -2   26.19    7.99
  -2  15  -2   15.10   17.08
   2 -15   2   13.45   14.06
   2 -15   2   18.29   16.54
   2  15   3  188.70   51.51
   2  15   3  154.82   43.98
  -2 -15  -3   92.16   51.40
  -2 -15  -3  115.59   41.19
  -2  15  -3  142.34   53.54
  -2  15  -3  160.82   44.07
   2 -15   3   91.76   52.86
   2 -15   3  148.06   43.05
   2  15   4  236.02   75.61
   2  15   4  249.70   77.55
   2  15   4  252.41   66.19
  -2 -15  -4  205.27   76.71
  -2 -15  -4  149.91   60.56
  -2  15  -4  220.69   78.52
  -2  15  -4  184.68   63.41
   2 -15   4   92.99   75.98
   2 -15   4  237.14   62.32
   2  15   5 1665.51  519.03
   2  15   5 1686.77  418.94
  -2 -15  -5  772.79  416.37
  -2  15  -5 1401.77  520.87
   2 -15   5 1495.76  417.66
   2  15   6 1329.24  445.55
   2  15   6 1039.63  359.60
  -2  15  -6 1081.34  447.86
   2 -15   6 1001.78  358.60
   2  15   7  195.65   62.28
   2  15   7  109.04   55.52
  -2  15  -7  105.82   64.39
   2 -15   7  130.14   55.42
   2  15   8  272.03   90.62
   2  15   8  147.40   78.51
  -2  15  -8  205.48   94.16
   2 -15   8  211.17   78.83
   2  15   9  141.08   49.93
   2  15   9   52.47   53.60
  -2  15  -9  105.46   53.30
   2 -15   9  128.09   47.62
   2  15  10   63.06   26.92
   2  15  10   -6.93   38.71
  -2  15 -10   46.74   30.95
   2 -15  10   58.65   36.62
   2  15  11  150.69   49.49
   2  15  11   -9.39   64.74
  -2  15 -11  101.37   52.94
   2 -15  11   82.37   58.12
   2  16   0 1418.52  418.92
  -2 -16   0  683.99  418.00
  -2  16   0 1174.74  419.48
  -2  16   0 1454.16  335.66
  -2  16   0 1466.41  336.85
   2 -16   0  806.66  418.06
   2 -16   0 1638.15  336.98
   2  16   1 1188.67  296.33
  -2 -16  -1  470.65  295.46
  -2  16  -1 1029.53  297.41
  -2  16  -1 1160.27  238.75
   2 -16   1  455.94  295.36
   2 -16   1 1255.23  238.51
   2  16   2   76.69   30.72
   2  16   2   55.76   25.74
  -2 -16  -2   44.81   31.45
  -2 -16  -2   15.82   23.49
  -2  16  -2   54.88   32.46
  -2  16  -2  143.06   24.04
  -2  16  -2   70.77   28.27
   2 -16   2   36.09   30.24
   2 -16   2  194.42   32.00
   2  16   3 1388.52  414.23
   2  16   3 1187.65  332.98
  -2 -16  -3 1226.99  414.51
  -2 -16  -3  834.26  331.98
  -2  16  -3 1092.34  415.80
  -2  16  -3 1150.39  332.05
  -2  16  -3 1256.81  333.82
   2 -16   3  697.53  414.09
   2 -16   3 1393.49  333.50
   2  16   4  544.05  176.35
   2  16   4  545.36  144.23
  -2 -16  -4  295.16  140.91
  -2  16  -4  532.37  178.75
  -2  16  -4  378.64  142.25
   2 -16   4  517.61  142.61
   2  16   5   87.44   28.56
   2  16   5   71.08   40.05
  -2 -16  -5   29.68   24.78
  -2  16  -5   74.11   32.51
   2 -16   5   69.38   29.94
   2  16   6  687.60  234.54
   2  16   6  558.05  191.25
  -2  16  -6  592.66  237.47
   2 -16   6  505.69  188.84
   2  16   7  118.19   43.05
   2  16   7   72.29   49.76
  -2  16  -7  107.92   48.75
   2 -16   7   79.22   41.21
   2  16   8    9.10   15.06
   2  16   8   -6.30   28.04
  -2  16  -8   10.61   19.14
   2 -16   8   12.60   27.70
   2  16   9  737.52  222.42
   2  16   9    6.68  178.13
  -2  16  -9  539.18  224.76
   2 -16   9  566.81  182.79
   2  16  10   85.60   32.58
   2  16  10   11.90   54.68
  -2  16 -10   53.85   36.72
   2 -16  10   64.37   49.34
   2  16  11  324.56   99.71
   2  16  11   17.16   94.20
  -2  16 -11  241.94  101.72
   2 -16  11  127.98   85.95
   2  17   0  726.74  206.08
  -2 -17   0  283.77  204.90
  -2  17   0  583.57  206.49
  -2  17   0  746.92  164.20
  -2  17   0  743.33  165.96
   2 -17   0  388.61  205.09
   2 -17   0  720.21  165.73
   2  17   1  154.60   93.09
  -2 -17  -1   48.51   92.03
  -2  17  -1  141.02   94.06
  -2  17  -1  272.18   76.79
   2 -17   1   61.79   92.11
   2 -17   1  289.39   75.33
   2  17   2  423.89  111.21
  -2 -17  -2  205.14  110.79
  -2  17  -2  316.16  112.60
  -2  17  -2  370.25   87.88
  -2  17  -2  321.74   91.33
   2 -17   2  146.67  110.33
  -2  17  -3  132.40   72.76
  -2  17  -3  219.36   56.39
  -2  17  -3  122.45   60.60
   2 -17   3  176.57   60.34
   2  17   4 1328.19  423.81
   2  17   4  972.00  341.36
  -2  17  -4  867.97  425.30
   2 -17   4 1026.19  340.73
   2  17   5   15.41   11.60
   2  17   5   31.89   35.43
  -2  17  -5   11.66   17.65
   2 -17   5    1.99   24.83
   2  17   6  204.61   65.77
   2  17   6  125.60   63.19
  -2  17  -6  130.21   70.93
   2 -17   6  128.61   57.04
   2  17   7   -0.47   11.86
   2  17   7   -3.02   38.28
  -2  17  -7    3.92   26.30
   2 -17   7   -4.09   23.01
   2  17   8  184.55   60.36
   2  17   8   91.72   61.92
  -2  17  -8  114.66   63.95
   2 -17   8  124.33   58.86
   2  17   9  283.72   85.67
   2  17   9    8.98   79.65
  -2  17  -9  189.94   88.70
   2 -17   9  166.62   75.09
   2  17  10   55.32   27.49
   2  17  10   28.34   47.35
  -2  17 -10   42.49   32.27
   2 -17  10   63.70   42.42
   2  17  11   15.73   23.90
  -2  17 -11   19.73   30.49
   2  18   0  391.41   99.97
  -2 -18   0  114.59   97.99
  -2  18   0  379.89   78.27
  -2  18   0  276.48   80.87
   2 -18   0  163.87   98.54
   2 -18   0  315.62   80.19
   2  18   1  179.26   55.91
  -2  18  -1  143.26   57.24
  -2  18  -1  171.14   42.68
  -2  18  -1  163.18   49.58
   2 -18   1   61.49   54.62
   2 -18   1  160.23   46.24
   2  18   2  100.33   36.52
  -2  18  -2   65.00   37.91
  -2  18  -2   82.71   26.71
  -2  18  -2   79.58   33.46
   2 -18   2   89.23   30.50
   2  18   3   95.88   33.68
  -2 -18  -3   13.27   26.93
  -2  18  -3  111.21   26.50
   2 -18   3   86.20   33.62
   2  18   4   60.66   22.18
   2  18   4   39.00   27.80
  -2 -18  -4    7.48   19.18
  -2  18  -4   41.03   24.27
  -2  18  -4   43.14   15.99
   2 -18   4   41.22   26.83
   2  18   5   46.09   21.14
   2  18   5   31.14   44.56
  -2  18  -5   31.04   24.65
   2  18   6   30.69   16.26
   2  18   6   28.85   49.96
  -2  18  -6   36.65   29.72
   2 -18   6   13.50   28.08
   2  18   7    7.98   11.08
   2  18   7   11.10   36.74
  -2  18  -7   -1.95   27.16
   2 -18   7    5.14   29.41
   2  18   8  815.35  241.13
   2  18   8   -4.84  195.11
  -2  18  -8  578.69  244.02
   2 -18   8  545.97  196.06
   2  18   9  148.67   48.26
   2  18   9  -11.44   59.92
  -2  18  -9  105.12   52.94
   2 -18   9   94.87   54.89
   2  18  10    3.74   15.26
  -2  18 -10    9.21   23.06
   2 -18  10    9.09   48.54
   2  19   0   15.23   89.95
  -2  19   0   14.05   90.26
  -2  19   0  540.91   71.95
  -2  19   0  120.26   72.83
   2 -19   0  194.71   72.30
   2  19   1   50.23   36.40
  -2  19  -1   37.73   38.31
  -2  19  -1  126.40   27.88
   2 -19   1  106.48   32.70
   2  19   2  212.98   74.48
  -2  19  -2  131.98   75.05
  -2  19  -2  202.54   57.95
   2 -19   2  152.45   61.52
   2  19   3   53.91   27.11
   2  19   3   22.10   25.40
  -2  19  -3   21.37   27.64
  -2  19  -3   87.20   22.20
   2 -19   3   49.57   27.41
   2  19   4  430.21  112.95
   2  19   4  263.02   92.94
  -2 -19  -4   76.07   89.35
  -2  19  -4  353.51  115.53
  -2  19  -4  338.88   89.13
   2 -19   4  317.24   93.19
   2  19   5  882.09  270.24
   2  19   5  539.43  220.17
  -2  19  -5  633.98  272.32
   2 -19   5  487.68  217.30
   2  19   6   20.30   17.80
  -2  19  -6   13.33   31.45
   2 -19   6   20.07   29.75
   2  19   7   -0.77   10.87
   2  19   7    0.35   39.51
  -2  19  -7   -0.48   28.01
   2 -19   7    2.65   31.22
   2  19   8    9.37   15.41
   2  19   8   11.58   46.06
  -2  19  -8    4.47   21.05
   2 -19   8    1.02   34.82
   2  19   9    4.13   13.60
   2  19   9   10.81   55.23
  -2  19  -9    1.75   22.51
   2 -19   9    8.46   39.55
   2  19  10   38.87   33.90
  -2  19 -10   20.07   39.12
   2  20   0   99.60   55.81
  -2  20   0   70.54   55.59
  -2  20   0  197.02   43.51
   2  20   1  502.15  194.63
  -2  20  -1  503.88  195.78
  -2  20  -1  546.56  154.72
   2 -20   1  467.12  156.96
   2  20   2   25.10   35.01
  -2  20  -2   13.38   37.96
  -2  20  -2  135.60   27.68
   2 -20   2  111.09   38.75
   2  20   3  821.59  252.51
  -2  20  -3  567.19  254.32
  -2  20  -3  602.45  201.34
   2  20   4  448.60  136.36
  -2  20  -4  323.55  138.41
  -2  20  -4  317.13  108.01
   2 -20   4  308.70  111.29
   2  20   5    8.01   17.19
   2  20   5   10.57   39.04
  -2  20  -5   14.53   18.97
  -2  20  -5    7.17   10.88
   2 -20   5    2.40   39.65
   2  20   6   52.13   23.98
   2  20   6   44.55   62.58
  -2  20  -6   37.47   31.47
   2 -20   6   27.89   33.53
   2  20   7   29.97   20.00
   2  20   7  -11.41   50.74
  -2  20  -7   13.42   38.04
   2 -20   7   12.99   34.88
   2  20   8   35.85   18.45
   2  20   8   10.33   59.96
  -2  20  -8   22.41   25.79
   2 -20   8   20.21   39.06
   2  20   9  251.09   73.93
   2  20   9   23.92   81.42
  -2  20  -9  160.84   79.02
   2 -20   9   95.71   69.92
   2  20  10  998.13  312.96
  -2  20 -10  467.70  314.60
   2  21   0  373.18  152.69
  -2  21   0  291.35  152.63
  -2  21   0  470.92  120.61
   2  21   1   89.20   97.01
  -2  21  -1   90.64   98.57
  -2  21  -1  384.94   76.83
   2 -21   1  371.27   81.00
   2  21   2   45.08   28.33
  -2  21  -2   52.57   32.36
  -2  21  -2   71.50   21.14
   2 -21   2   61.33   34.37
   2  21   3   92.84   36.69
  -2  21  -3   81.31   41.56
  -2  21  -3   83.70   27.47
   2 -21   3   60.08   37.59
   2  21   4  212.87   63.49
   2  21   4   72.14   54.95
  -2  21  -4  142.41   67.08
  -2  21  -4  145.71   49.48
   2 -21   4  145.39   53.99
   2  21   5  424.45  112.71
   2  21   5  200.18   98.60
  -2  21  -5  330.83  115.78
  -2  21  -5  213.99   88.24
   2 -21   5  282.53   97.93
   2  21   6  973.77  171.47
   2  21   6  491.60  151.67
  -2  21  -6  631.48  174.99
  -2  21  -6   42.66  133.89
   2 -21   6  618.35  144.75
   2  21   7  169.34   51.44
   2  21   7   -5.59   60.05
  -2  21  -7  124.65   59.50
   2 -21   7   57.71   51.92
   2  21   8  218.26   62.06
   2  21   8   -1.21   85.48
  -2  21  -8   97.30   64.99
   2 -21   8   98.14   62.10
   2  21   9  723.02  250.77
  -2  21  -9  526.54  255.99
   2  22   0  556.99  194.77
  -2  22   0  446.36  194.88
  -2  22   0  518.85  154.37
   2  22   1  375.58  153.35
  -2  22  -1  353.82  154.12
  -2  22  -1  436.72  121.11
   2  22   2    1.82   14.41
  -2  22  -2    8.51   20.64
  -2  22  -2    5.46    9.89
   2 -22   2    2.40   24.06
   2  22   3  178.63   61.43
  -2  22  -3  140.84   65.28
  -2  22  -3  142.67   47.21
   2 -22   3  136.91   56.02
   2  22   4  475.27  136.67
  -2  22  -4  325.23  139.18
  -2  22  -4  325.84  108.01
   2 -22   4  233.97  110.03
   2  22   5  928.24  231.88
   2  22   5  277.13  191.79
  -2  22  -5  662.11  234.37
  -2  22  -5  508.38  184.24
   2 -22   5  437.04  186.31
   2  22   6  146.95   31.51
   2  22   6   48.35   63.53
  -2  22  -6  102.69   35.25
  -2  22  -6    1.63   22.73
   2 -22   6   48.14   52.40
   2  22   7  707.06  103.60
   2  22   7    5.91  102.24
  -2  22  -7  514.17  110.25
  -2  22  -7    2.17   77.71
   2 -22   7  255.14   96.82
   2  22   8   44.04   24.84
  -2  22  -8   11.64   33.91
   2  22   9  245.08   87.27
  -2  22  -9  144.21   95.89
   2  23   0  328.66  186.07
  -2  23   0  397.59  187.39
  -2  23   0  635.42  148.27
   2  23   1  801.40  344.27
  -2  23  -1  792.43  345.48
  -2  23  -1 1040.99  275.10
   2  23   2  265.17  106.89
  -2  23  -2  280.52  110.34
  -2  23  -2  280.03   83.75
   2  23   3   81.28   33.78
  -2  23  -3   57.41   38.11
  -2  23  -3   61.81   23.29
   2 -23   3   61.03   37.23
   2  23   4  249.28   79.99
  -2  23  -4  189.79   83.48
  -2  23  -4  185.35   63.27
   2 -23   4  165.64   73.23
   2  23   5  254.17   81.45
  -2  23  -5  193.31   84.25
   2 -23   5  108.69   69.38
   2  23   6  966.21  142.28
  -2  23  -6  588.99  144.42
  -2  23  -6   -4.69  109.34
   2 -23   6  370.86  115.37
   2  23   7  278.80   49.53
  -2  23  -7  206.49   64.23
  -2  23  -7    1.58   34.84
   2  23   8  336.90  113.10
  -2  23  -8  165.30  118.61
   2  24   0   78.91   50.30
  -2  24   0  123.44   54.34
  -2  24   0  133.03   39.20
   2  24   1  778.09  291.55
  -2  24  -1  773.57  293.03
  -2  24  -1  770.99  232.21
   2  24   2   20.66   34.68
  -2  24  -2   10.61   33.76
  -2  24  -2   98.28   26.69
   2  24   3  793.35  278.84
  -2  24  -3  722.03  221.88
   2 -24   3  701.28  225.49
   2  24   4   10.36   17.42
  -2  24  -4   26.47   26.60
  -2  24  -4    6.71   15.43
   2 -24   4   -3.27   36.72
   2  24   5    9.06   18.28
  -2  24  -5    7.95   21.96
  -2  24  -5    2.52   17.26
   2 -24   5    3.72   39.80
   2  24   6  343.11  107.63
  -2  24  -6  314.90  115.00
   2 -24   6   91.49   93.47
   2  24   7  144.42   55.16
  -2  24  -7   87.35   68.29
   2  24   8   53.85   32.60
  -2  24  -8   30.43   48.95
   2  25   0   97.60   94.61
  -2  25   0  142.84   97.99
  -2  25   0  375.59   76.76
   2  25   1   83.13   51.32
  -2  25  -1   98.19   58.36
  -2  25  -1  135.58   39.96
   2  25   2  410.88  169.40
  -2  25  -2  494.64  172.90
   2  25   3  135.90   37.04
  -2  25  -3  194.64   47.98
  -2  25  -3    2.54   27.16
   2  25   4  168.07   40.39
  -2  25  -4  230.27   57.07
  -2  25  -4   -1.93   29.20
   2 -25   4   77.69   48.22
   2  25   5  192.70   44.00
  -2  25  -5  243.51   58.87
  -2  25  -5    2.06   31.99
   2  25   6    4.76   24.67
  -2  25  -6    0.40   41.19
   2  25   7   10.77   28.85
  -2  25  -7   10.68   42.76
   2  26   0  301.01   82.01
  -2  26   0  475.78   88.51
  -2  26   0    5.93   63.60
   2  26   1   18.47   25.09
  -2  26  -1   26.38   33.27
   2  26   2   41.06   27.10
  -2  26  -2   40.28   34.86
  -2  26  -2  -13.48   21.77
   2  26   3   39.10   25.59
  -2  26  -3   43.53   37.26
  -2  26  -3    8.71   23.74
   2  26   4  117.43   57.58
  -2  26  -4  166.65   67.16
   2  26   5    1.96   19.50
  -2  26  -5   -1.03   41.86
   2  26   6   43.73   39.10
  -2  26  -6   51.73   46.31
   2  27   0  141.47   73.17
  -2  27   0  208.61   81.22
   2  27   1    5.55   20.45
  -2  27  -1   18.85   32.62
  -2  27  -1    5.83   26.00
   2  27   2  237.61  102.88
  -2  27  -2  277.21  107.51
   2  27   3    5.17   26.63
  -2  27  -3    4.78   36.37
   2  27   4  397.05  139.12
  -2  27  -4  284.29  143.75
   2  27   5  165.50   56.65
  -2  27  -5   -2.56   65.76
   2  28   0    9.74   23.21
  -2  28   0   14.93   43.44
   2  28   1  287.06   70.49
  -2  28  -1   -7.29   72.20
   2  28   2   37.39   32.24
  -2  28  -2    0.04   38.87
   2  28   3  606.56  153.83
  -2  28  -3   28.37  151.81
   2  28   4   39.85   37.39
  -2  28  -4   -9.16   44.15
   2  29   0  197.44   60.22
  -2  29   0    7.42   64.29
   2  29   1    1.38   37.04
  -2  29  -1    9.07   48.14
   2  29   2   77.59   38.86
  -2  29  -2    4.67   46.79
   2  29   3  114.87   61.76
   2  30   0   66.46   45.37
   3   0   1    2.69   13.78
  -3   0  -1   -1.25   12.75
   3   0   2 9999.00 2981.33
   3   0   3   -0.96    8.70
   3   0   3    0.50   12.38
   3   0   3   -5.35   17.34
  -3   0  -3   -1.40   10.71
   3   0   4   56.95   26.78
   3   0   4   73.16   30.71
   3   0   4   64.85   23.26
  -3   0  -4   57.31   23.44
   3   0   5   -0.25   10.88
   3   0   5    8.03   18.83
   3   0   5   -1.69   13.10
  -3   0  -5   -0.05   12.94
   3   0   6  631.47  228.49
   3   0   6  565.41  230.51
   3   0   6  596.21  183.66
   3   0   7    6.32   18.29
   3   0   7    8.05   21.06
   3   0   8  644.59  241.56
   3   0   8  631.39  194.26
   3   0   9    7.37   20.65
   3   0   9    3.80   27.74
   3   0  10   75.99   36.85
   3   0  11   10.09   30.87
   3   0  12  124.20   54.14
  -3  -1   0  625.44  189.34
  -3   1   0  745.66  189.52
   3  -1   0  527.31  189.01
   3   1   1 3513.82 1161.03
  -3  -1  -1 3770.28 1161.33
  -3   1  -1 3767.14 1161.32
   3  -1   1 4429.23 1161.31
   3   1   2    8.11    7.57
   3   1   2    7.37    9.98
   3   1   2    8.36   15.62
  -3  -1  -2   -0.75   10.49
  -3   1  -2   -2.97   11.98
   3  -1   2    6.80    7.24
   3  -1   2    5.03   10.93
   3  -1   2   12.40   18.67
   3   1   3  482.25  164.32
   3   1   3  455.12  131.26
  -3  -1  -3  405.88  130.95
  -3   1  -3  412.16  130.96
   3  -1   3  387.72  162.51
   3  -1   3  446.09  163.94
   3  -1   3  504.28  132.10
   3   1   4   11.55   12.10
   3   1   4   15.61   16.40
   3   1   4   19.21   15.89
  -3  -1  -4    6.97   15.40
  -3   1  -4   21.42   14.57
   3  -1   4   21.06   13.64
   3  -1   4   11.32   13.85
   3  -1   4   18.86   13.59
   3   1   5   29.15   18.60
   3   1   5   37.02   22.76
   3   1   5   33.39   16.91
  -3  -1  -5   26.80   21.73
   3  -1   5   32.56   20.15
   3  -1   5   36.03   21.64
   3  -1   5   40.98   17.80
   3   1   6  364.01  134.42
   3   1   6  326.63  136.82
   3   1   6  401.23  108.95
   3  -1   6  289.06  136.04
   3  -1   6  408.74  108.34
   3   1   7 2023.08  774.89
   3   1   7 2315.68  623.58
   3  -1   7 2062.07  623.20
   3   1   8    3.53   18.23
   3   1   8   13.64   22.14
   3  -1   8   17.28   23.14
   3  -1   8   -4.69   19.38
   3   1   9    6.14   24.15
   3  -1   9   -0.33   19.51
   3  -1   9   -6.09   22.07
   3   1  10   66.47   36.14
   3   1  10   48.51   40.21
   3  -1  10   78.79   37.60
   3  -1  10   51.92   32.79
   3   1  11   48.39   42.20
   3  -1  11   50.76   33.83
   3   1  12   10.42   35.55
   3  -1  12    1.77   39.64
   3   2   0   -4.80   12.07
  -3  -2   0   -0.43   13.84
  -3   2   0    3.68    6.33
  -3   2   0    2.65   12.28
   3  -2   0    2.58   12.85
   3   2   1  381.42  258.70
   3   2   1  511.58  259.97
   3   2   1 1261.69  209.52
  -3  -2  -1  750.91  208.79
  -3   2  -1 1189.34  209.90
   3  -2   1 1033.87  209.16
   3   2   2  425.56  198.67
   3   2   2  733.35  160.25
  -3  -2  -2  428.98  159.03
  -3   2  -2  439.31  159.42
   3  -2   2  629.14  160.18
   3   2   3  140.21   56.65
   3   2   3  133.34   57.92
   3   2   3  153.30   46.40
  -3  -2  -3  149.81   46.43
  -3   2  -3  148.27   46.49
   3  -2   3  152.25   58.63
   3  -2   3  173.05   49.43
   3   2   4  112.78   43.96
   3   2   4   91.33   45.28
   3   2   4  130.02   37.89
  -3  -2  -4   68.97   36.67
  -3   2  -4  105.00   37.21
   3  -2   4  127.81   45.24
   3  -2   4  105.83   45.62
   3  -2   4  123.50   37.01
   3   2   5   88.34   37.77
   3   2   5   56.24   38.72
   3   2   5  100.32   32.09
  -3  -2  -5   57.38   33.58
   3  -2   5  122.20   39.83
   3  -2   5   87.24   40.28
   3  -2   5  109.75   32.28
   3   2   6  802.84  305.94
   3   2   6  857.92  246.46
   3  -2   6  849.47  306.38
   3  -2   6  744.14  245.90
   3   2   7  103.71   43.52
   3   2   7   96.01   36.71
   3  -2   7  108.73   44.52
   3  -2   7   84.51   36.28
   3   2   8  174.86   69.93
   3   2   8  166.68   58.04
   3  -2   8  178.53   70.47
   3  -2   8  161.44   56.98
   3   2   9   37.57   25.58
   3   2   9   35.57   29.36
   3  -2   9   52.78   30.22
   3  -2   9   43.31   25.91
   3   2  10  139.80   55.23
   3   2  10  104.08   50.94
   3  -2  10  124.43   48.31
   3   2  11   23.94   36.33
   3  -2  11   37.47   30.85
   3   2  12  221.61   75.73
   3  -2  12  134.24   69.09
  -3  -3   0   19.12   14.73
  -3   3   0   14.99    8.70
  -3   3   0   11.13   13.21
   3  -3   0   12.56   15.04
   3   3   1    3.88    8.72
   3   3   1    6.25   15.11
  -3  -3  -1    8.06   13.21
  -3   3  -1   10.94   17.23
   3  -3   1    0.61    5.59
   3  -3   1    5.19   13.45
   3   3   2  519.58  214.64
   3   3   2  714.95  216.15
   3   3   2  697.29  173.26
  -3  -3  -2  669.94  173.18
  -3   3  -2  612.04  173.42
   3  -3   2  586.49  214.99
   3  -3   2  369.64  215.22
   3  -3   2  699.97  173.47
   3   3   3   45.18   20.61
   3   3   3   41.60   22.18
   3   3   3   40.72   20.14
  -3  -3  -3   38.49   18.51
  -3   3  -3   52.46   24.18
  -3   3  -3   42.85   19.44
   3  -3   3   67.71   24.76
   3   3   4   58.52   24.66
   3   3   4   61.96   26.35
   3   3   4   59.21   22.26
  -3  -3  -4   38.69   21.83
  -3   3  -4   69.57   29.25
  -3   3  -4   49.63   24.38
   3  -3   4   59.00   28.02
   3  -3   4   46.50   22.16
   3   3   5  243.24  100.25
   3   3   5  203.43  101.59
   3   3   5  258.34   81.63
  -3  -3  -5  220.29   82.73
  -3   3  -5  366.02  103.22
   3  -3   5  248.19  102.26
   3  -3   5  306.69   81.39
   3   3   6   75.89   33.91
   3   3   6   77.05   30.01
  -3   3  -6   94.02   40.56
   3  -3   6   81.52   30.03
   3   3   7  139.16   61.03
   3   3   7  160.73   51.85
  -3   3  -7  168.41   64.79
   3  -3   7  160.41   62.85
   3  -3   7  158.82   52.17
   3   3   8  561.59  229.41
   3   3   8  530.45  185.26
  -3   3  -8  649.68  231.17
   3  -3   8  675.53  230.89
   3  -3   8  576.60  184.89
   3   3   9   23.40   21.43
   3  -3   9   26.10   26.12
   3  -3   9   17.72   22.43
   3   3  10    4.32   20.90
   3   3  10    0.70   29.37
   3  -3  10   13.16   24.48
   3   3  11  183.16   78.57
   3  -3  11  235.01   82.12
   3  -3  11   80.83   64.37
   3   3  12    0.53   39.33
   3  -3  12    7.59   32.37
  -3  -4   0   51.18   22.45
  -3   4   0   64.68   19.41
  -3   4   0   49.06   22.58
   3  -4   0   64.44   25.69
   3   4   1    2.69   10.71
   3   4   1    2.79   13.68
   3   4   1   53.94   16.20
  -3  -4  -1   22.77   13.74
  -3   4  -1   -2.75   13.93
  -3   4  -1  116.30   21.32
   3  -4   1   60.67   17.28
   3   4   2  130.07   47.45
   3   4   2  175.40   40.83
  -3  -4  -2  103.01   38.14
  -3   4  -2   98.97   47.31
  -3   4  -2   86.17   39.21
   3  -4   2   79.77   46.28
   3  -4   2  188.03   41.11
   3   4   3  331.87  133.17
   3   4   3  412.80  134.86
   3   4   3  367.26  107.45
  -3  -4  -3  343.89  107.57
  -3   4  -3  341.55  134.38
  -3   4  -3  366.14  107.80
   3  -4   3  316.79  134.24
   3  -4   3  420.19  108.99
   3   4   4   44.29   19.89
   3   4   4   35.64   21.98
   3   4   4   38.97   20.12
  -3  -4  -4   41.56   19.97
  -3   4  -4   50.12   22.42
  -3   4  -4   38.81   19.49
   3  -4   4   34.18   22.67
   3  -4   4   44.36   23.25
   3   4   5  108.95   40.34
   3   4   5   72.27   42.36
   3   4   5   95.36   33.54
  -3   4  -5  105.26   43.39
   3  -4   5  101.81   42.60
   3  -4   5   93.80   33.72
   3   4   6   67.51   29.57
   3   4   6   68.74   29.04
  -3   4  -6   76.51   35.89
   3  -4   6   62.22   28.48
   3   4   7  196.48   79.01
   3   4   7  219.45   65.95
   3  -4   7  216.12   65.83
   3   4   8    6.08   13.38
   3   4   8    9.54   28.26
  -3   4  -8    8.21   14.40
   3  -4   8    2.25   18.63
   3   4   9   65.96   31.26
   3   4   9   49.25   33.97
  -3   4  -9   63.39   32.52
   3  -4   9   76.30   36.48
   3  -4   9   56.73   30.26
   3   4  10   -1.24   16.97
   3  -4  10    6.51   26.68
   3  -4  10   -1.33   23.47
   3   4  11  229.64   91.98
   3   4  11  124.20   79.09
   3  -4  11  286.85   98.20
   3  -4  11  147.03   75.96
   3   4  12   -8.55   49.49
   3  -4  12   11.65   32.53
   3   5   0   11.88   10.85
   3   5   0   21.89   12.75
  -3  -5   0   19.61   14.40
  -3   5   0   23.55    8.25
  -3   5   0    5.86   11.81
   3  -5   0    4.53   19.16
   3   5   1  229.81   96.15
   3   5   1  323.91   97.67
   3   5   1  330.71   78.30
  -3  -5  -1  303.37   78.02
  -3   5  -1  365.05   79.19
   3  -5   1  151.03   96.25
   3  -5   1  330.14   78.62
   3   5   2  240.79   67.87
   3   5   2  178.55   55.24
  -3  -5  -2  176.26   53.82
  -3   5  -2  152.57   67.33
  -3   5  -2  158.05   54.74
   3  -5   2  132.86   66.58
   3  -5   2  200.83   55.57
   3   5   3   97.09   41.30
   3   5   3  140.90   43.65
   3   5   3   90.72   35.00
  -3   5  -3  111.89   43.31
  -3   5  -3  106.44   35.95
   3  -5   3   78.24   42.38
   3  -5   3  134.92   36.75
   3   5   4  116.57   44.78
   3   5   4  126.82   46.89
   3   5   4  105.40   37.01
  -3  -5  -4  107.48   37.13
  -3   5  -4  118.77   46.77
  -3   5  -4  103.18   37.65
   3  -5   4   92.51   46.52
   3  -5   4  127.16   39.32
   3   5   5   69.31   28.98
   3   5   5   58.89   31.26
   3   5   5   70.24   26.52
   3  -5   5   55.12   31.66
   3  -5   5   80.61   27.05
   3   5   6   82.58   35.07
   3   5   6   83.20   30.19
  -3   5  -6   74.54   37.77
   3  -5   6   83.41   29.76
   3   5   7 1181.27  440.91
   3   5   7 1162.38  355.35
  -3   5  -7 1184.22  442.60
   3  -5   7 1201.24  354.81
   3   5   8  149.32   57.28
   3   5   8  118.92   49.36
  -3   5  -8  126.68   58.35
   3  -5   8  150.98   49.21
   3   5   9  142.57   54.82
   3   5   9   83.79   51.86
  -3   5  -9  131.41   54.73
   3  -5   9  114.86   48.13
   3   5  10   25.50   21.58
   3   5  10   -1.37   31.32
  -3   5 -10   11.83   20.62
   3  -5  10   28.26   29.92
   3  -5  10   22.21   25.30
   3   5  11  244.98   93.89
   3   5  11   85.25   83.48
   3  -5  11  286.40   97.35
   3  -5  11  155.90   76.86
   3   5  12   16.68   41.40
   3  -5  12   -9.13   38.43
   3   6   0    7.14    9.98
   3   6   0   11.09   13.52
  -3  -6   0   12.21   14.87
  -3   6   0   10.55    7.13
  -3   6   0   15.59   13.54
   3  -6   0   11.99   18.92
   3   6   1   90.60   47.51
   3   6   1  107.18   48.90
   3   6   1  207.08   41.31
  -3  -6  -1  256.59   44.36
  -3   6  -1   71.57   48.37
  -3   6  -1  283.66   43.78
   3  -6   1   49.34   47.55
   3  -6   1  239.64   42.75
   3   6   2 1294.04  563.88
   3   6   2 2323.48  454.44
  -3  -6  -2 2289.74  454.81
  -3   6  -2 1324.05  564.80
  -3   6  -2 1729.71  454.29
   3  -6   2 1097.76  564.18
   3  -6   2 2020.45  454.16
   3   6   3    2.20    9.74
   3   6   3    7.22   11.87
   3   6   3   14.30   13.94
  -3  -6  -3   -0.33   20.36
  -3   6  -3    0.52    9.44
  -3   6  -3    1.08   12.77
   3  -6   3    4.16    9.44
   3  -6   3   -3.20   16.40
   3   6   4  122.23   46.65
   3   6   4  135.71   49.08
   3   6   4  131.57   38.83
  -3   6  -4  115.42   48.06
  -3   6  -4   98.22   39.34
   3  -6   4   90.38   47.89
   3  -6   4  134.99   40.88
   3   6   5    8.82   11.66
   3   6   5    8.47   16.52
   3  -6   5    6.09   15.82
   3  -6   5   20.47   17.38
   3   6   6  846.96  317.46
   3  -6   6  859.32  255.36
   3   6   7  136.99   54.01
   3   6   7  143.11   47.19
  -3   6  -7  130.73   56.25
   3  -6   7  121.40   44.77
   3   6   8  230.23   91.51
  -3   6  -8  264.95   93.96
   3  -6   8  197.82   75.48
   3   6   9  253.51   89.84
   3   6   9  146.15   75.14
   3  -6   9  204.99   73.34
   3   6  10   43.28   25.31
   3   6  10    2.94   32.15
  -3   6 -10    8.47   22.53
   3  -6  10   29.04   26.12
   3   6  11    6.08   23.18
   3   6  11   -2.99   36.07
   3  -6  11   -7.17   31.35
   3  -6  11    1.29   26.88
   3   7   0    0.06    8.11
  -3  -7   0    8.93   18.97
  -3   7   0    2.03    6.23
  -3   7   0    7.33    6.59
  -3   7   0    3.60   11.25
   3  -7   0    1.52    4.99
   3  -7   0   -3.84   19.34
   3   7   1 2896.44 1074.01
   3   7   1 3612.93 1075.10
   3   7   1 4546.20  864.53
  -3  -7  -1 4978.57  865.16
  -3   7  -1 2218.20 1074.85
  -3   7  -1 4153.62  864.85
   3  -7   1 1445.06 1073.81
   3   7   2  160.27   68.07
   3   7   2  255.11   69.88
   3   7   2  213.44   57.22
  -3  -7  -2  196.97   57.96
  -3   7  -2  150.02   56.41
   3  -7   2  125.54   68.52
   3  -7   2  224.65   56.91
   3   7   3  548.11  225.23
   3   7   3  881.83  227.13
   3   7   3  638.99  181.52
  -3  -7  -3  664.61  182.34
  -3   7  -3  486.07  226.37
  -3   7  -3  585.86  181.78
   3  -7   3  435.21  225.73
   3  -7   3  823.18  182.49
   3   7   4    4.20    8.71
   3   7   4   11.94   14.45
   3   7   4    6.93   14.73
  -3  -7  -4   -7.59   21.67
  -3   7  -4    7.84   11.78
   3  -7   4    2.11   11.84
   3  -7   4    0.92   21.28
   3   7   5   19.99   13.30
   3   7   5   11.45   17.12
   3   7   5   18.07   15.38
  -3   7  -5   24.27   16.46
   3  -7   5   16.73   16.33
   3  -7   5   34.34   19.99
   3   7   6    1.58   14.30
   3   7   6    6.27   20.74
  -3   7  -6    3.39   14.44
   3  -7   6    9.08   18.41
   3   7   7 2092.10  773.48
   3   7   7 2045.10  622.76
  -3   7  -7 2121.88  775.07
   3  -7   7 1991.30  622.20
   3   7   8  494.89  185.58
   3   7   8  388.26  151.14
  -3   7  -8  547.62  187.37
   3  -7   8  445.52  149.17
   3   7   9   14.47   22.48
   3   7   9   -0.36   28.12
  -3   7  -9    5.40   20.37
   3  -7   9    6.95   20.85
   3   7  10   95.87   35.46
   3   7  10    7.35   42.98
  -3   7 -10   -0.37   31.55
   3  -7  10   55.09   34.51
   3   7  11   49.20   29.44
   3   7  11    8.49   37.99
  -3   7 -11    4.54   26.18
   3  -7  11   44.91   38.15
   3  -7  11   43.84   52.49
   3   8   0  296.16  106.52
   3   8   0  240.72  106.95
  -3  -8   0  297.55   84.55
  -3  -8   0  458.86   87.98
  -3   8   0  172.07  107.00
  -3   8   0  437.81   85.02
  -3   8   0  315.71   86.04
   3  -8   0  113.51  105.65
   3  -8   0  390.49   87.03
   3   8   1  564.88  199.05
   3   8   1  568.51  200.06
   3   8   1  741.70  160.76
  -3  -8  -1  902.06  161.89
  -3   8  -1  398.44  199.99
  -3   8  -1  798.07  161.89
   3  -8   1  266.78  198.80
   3  -8   1  756.65  161.05
   3   8   2 4141.48 1472.49
   3   8   2 5117.42 1473.79
   3   8   2 4995.60 1184.85
  -3  -8  -2 3840.09 1184.72
  -3   8  -2 3420.99 1184.75
   3  -8   2 2166.75 1472.47
   3  -8   2 5640.26 1185.16
   3   8   3  415.20  163.88
   3   8   3  621.73  165.69
   3   8   3  391.32  131.98
  -3  -8  -3  425.99  132.79
  -3   8  -3  335.96  164.99
  -3   8  -3  332.78  131.94
   3  -8   3  499.53  132.60
   3   8   4  251.38   84.32
   3   8   4  271.59   86.38
   3   8   4  216.09   68.55
  -3  -8  -4  194.14   70.56
  -3   8  -4  210.35   85.58
   3  -8   4  126.08   84.72
   3  -8   4  274.70   69.49
   3   8   5  157.70   54.00
   3   8   5  147.00   44.85
  -3   8  -5  145.85   56.02
   3  -8   5   80.09   55.23
   3  -8   5  161.70   47.07
   3   8   6  365.24  135.42
   3   8   6  341.07  110.52
  -3   8  -6  332.96  137.00
   3  -8   6  387.23  109.91
   3   8   7   -2.62   15.21
   3   8   7   -6.27   26.54
  -3   8  -7    7.66   21.20
   3  -8   7    0.44   17.04
   3   8   8  604.56  216.68
  -3   8  -8  563.45  218.48
   3  -8   8  495.10  174.70
   3   8   9   15.60   20.11
   3   8   9   13.59   35.01
  -3   8  -9   18.44   24.60
   3  -8   9   17.02   26.32
   3   8  10   24.00   22.38
   3   8  10    6.94   40.64
  -3   8 -10    5.43   26.60
   3  -8  10    8.69   24.35
   3   8  11  159.27   50.28
   3   8  11   20.20   48.05
  -3   8 -11    1.74   44.69
   3  -8  11  133.90   57.55
   3   9   0 1518.04  536.84
   3   9   0 1870.55  431.80
  -3  -9   0 1664.23  430.76
  -3   9   0 1019.21  537.55
  -3   9   0 2028.93  431.05
  -3   9   0 1488.92  431.67
   3  -9   0  650.20  536.05
   3  -9   0 1737.54  431.98
   3   9   1 1018.32  353.42
   3   9   1 1148.41  283.66
  -3  -9  -1 1139.15  284.15
  -3   9  -1  749.17  353.53
  -3   9  -1 1187.39  282.78
  -3   9  -1 1281.82  284.95
   3  -9   1  468.28  352.08
   3  -9   1 1319.95  284.46
   3   9   2   86.75   30.40
   3   9   2   83.09   32.69
  -3  -9  -2   98.53   30.55
  -3   9  -2   67.07   28.31
   3  -9   2   42.19   31.18
   3  -9   2   90.60   27.53
   3   9   3  281.86  100.67
   3   9   3  421.49  103.00
   3   9   3  279.10   81.67
  -3  -9  -3  249.53   83.38
  -3   9  -3  208.04  101.95
  -3   9  -3  201.09   81.56
   3  -9   3  165.98  101.09
   3  -9   3  328.14   83.17
   3   9   4   50.73   21.07
   3   9   4   44.58   24.07
   3   9   4   55.73   20.84
  -3   9  -4   46.16   21.91
   3  -9   4   19.97   21.97
   3  -9   4   46.51   25.21
   3   9   5   52.43   22.83
   3   9   5   36.99   20.97
  -3   9  -5   43.38   24.23
   3  -9   5   48.70   25.11
   3   9   6 1162.68  410.29
   3   9   6 1059.12  330.68
  -3   9  -6  971.47  411.75
   3  -9   6 1126.96  330.83
   3   9   7  668.51  245.38
   3   9   7  624.85  199.17
  -3   9  -7  648.48  247.24
   3  -9   7  636.57  198.37
   3   9   8   68.57   30.32
  -3   9  -8   59.06   35.50
   3  -9   8   65.39   28.68
   3   9   9   -2.98   15.55
   3   9   9    6.95   35.81
  -3   9  -9    5.68   22.86
   3  -9   9    5.42   20.93
   3   9  10   28.43   20.18
   3   9  10    9.40   48.68
  -3   9 -10   12.24   27.53
   3  -9  10    2.67   24.84
   3   9  11   92.77   43.11
   3   9  11   29.05   51.79
  -3   9 -11   -0.83   33.86
   3  -9  11  103.46   52.91
   3  10   0   11.46   13.20
   3  10   0    7.55   14.26
   3  10   0   12.47   15.21
  -3 -10   0    1.75   11.53
  -3 -10   0   47.97   11.99
  -3 -10   0   14.83   22.35
  -3  10   0    0.28   16.48
  -3  10   0   28.46    8.16
  -3  10   0   16.03   12.77
   3 -10   0    1.56   12.15
   3 -10   0   40.41   18.66
   3  10   1  423.92  205.87
   3  10   1  454.26  206.81
   3  10   1  988.39  167.51
  -3 -10  -1  515.76  166.37
  -3  10  -1  315.11  207.36
  -3  10  -1  953.68  165.17
  -3  10  -1  780.72  168.01
   3 -10   1  183.63  205.45
   3 -10   1  759.46  166.64
   3  10   2   28.23   16.79
   3  10   2   44.55   21.09
  -3 -10  -2   16.94   20.83
  -3  10  -2   27.33   17.75
  -3  10  -2   12.95   17.78
   3 -10   2   15.92   16.87
   3 -10   2   33.96   20.65
   3  10   3  416.32  154.20
   3  10   3  633.78  156.33
   3  10   3  479.85  125.28
  -3 -10  -3  382.73  125.51
  -3  10  -3  389.13  155.88
   3 -10   3  221.54  154.42
   3 -10   3  485.85  124.88
   3  10   4  119.20   35.97
   3  10   4   74.48   37.01
   3  10   4   86.58   29.72
  -3 -10  -4   33.17   29.85
   3 -10   4   48.64   35.72
   3 -10   4   98.32   31.43
   3  10   5  121.96   41.51
   3  10   5   61.86   34.70
  -3  10  -5   71.52   42.18
   3 -10   5   84.90   36.07
   3  10   6  320.51  120.89
   3  10   6  345.15  100.38
  -3  10  -6  289.54  122.43
   3 -10   6  327.73   98.89
   3  10   7    3.54   12.64
   3  10   7   -5.86   33.06
  -3  10  -7   -1.20   15.81
   3 -10   7    4.49   23.68
   3  10   8   40.18   24.25
  -3  10  -8   38.17   25.91
   3 -10   8   40.02   29.45
   3  10   9   -1.49   15.83
   3  10   9   -3.67   42.84
  -3  10  -9   -0.17   25.23
   3 -10   9   14.25   26.23
   3  10  10  166.38   49.20
   3  10  10   40.41   59.97
  -3  10 -10    4.96   53.44
   3 -10  10  132.63   42.83
   3  10  11  107.60   49.40
   3  10  11   13.49   48.98
   3 -10  11  119.26   67.15
   3  11   0   63.36   24.62
  -3 -11   0   63.25   18.64
  -3 -11   0   62.39   25.69
  -3  11   0   37.05   25.70
  -3  11   0   68.25   17.54
  -3  11   0   30.67   19.97
   3 -11   0   25.20   23.29
   3 -11   0   59.24   20.95
   3  11   1  340.06  102.54
   3  11   1  336.86   84.05
  -3  11  -1  263.09  105.07
  -3  11  -1  323.73   81.18
  -3  11  -1  262.11   84.34
   3 -11   1  139.55  101.68
   3  11   2  367.07  116.08
   3  11   2  340.11  117.45
   3  11   2  345.86   94.55
  -3 -11  -2  320.53   95.10
  -3  11  -2  347.18  119.19
  -3  11  -2  194.05   94.42
   3 -11   2  201.59  116.22
   3 -11   2  351.89   94.70
   3  11   3   27.43   13.06
   3  11   3    1.76   14.48
   3  11   3   16.35   20.04
  -3 -11  -3    9.46   17.01
  -3  11  -3   11.18   16.99
   3 -11   3    4.68   14.25
   3 -11   3   13.73   17.11
   3  11   4   71.99   28.15
   3  11   4   53.11   29.54
  -3  11  -4   55.75   31.29
   3 -11   4   54.77   26.17
   3  11   5  397.11  114.04
   3  11   5  186.43   92.90
  -3  11  -5  178.10  114.71
   3 -11   5  233.93   92.85
   3  11   6   15.07   19.15
   3  11   6    2.59   27.50
   3 -11   6   13.35   22.21
   3  11   7  128.56   47.20
   3  11   7  104.89   49.24
  -3  11  -7   95.15   48.87
   3 -11   7   94.02   42.42
   3  11   8  418.01  148.28
   3  11   8  304.75  124.95
  -3  11  -8  383.25  151.04
   3 -11   8  365.21  121.10
   3  11   9    2.53   15.95
   3  11   9    8.92   44.54
  -3  11  -9   -3.45   24.64
   3 -11   9   13.19   25.61
   3  11  10   19.57   19.52
   3  11  10  -24.65   53.65
  -3  11 -10    5.95   27.80
   3 -11  10    3.54   33.75
   3 -11  11   48.01   51.10
   3  12   0   73.94   40.70
  -3 -12   0  193.64   31.43
  -3 -12   0  106.46   35.86
  -3  12   0   65.67   41.79
  -3  12   0  106.62   30.26
  -3  12   0   78.46   33.80
   3 -12   0   22.85   39.37
   3 -12   0  133.75   33.80
   3  12   1  157.93   45.05
   3  12   1  111.56   46.44
   3  12   1  127.85   38.22
  -3 -12  -1  130.83   40.62
  -3  12  -1  104.48   48.04
  -3  12  -1  131.36   34.55
  -3  12  -1   84.53   40.15
   3 -12   1   46.01   43.91
   3 -12   1  129.18   38.64
   3  12   2  517.00  200.41
   3  12   2  486.65  201.55
   3  12   2  684.53  162.60
  -3 -12  -2  401.69  161.52
  -3  12  -2  410.86  202.76
  -3  12  -2  855.14  160.55
   3 -12   2  233.46  200.23
   3 -12   2  622.24  162.01
   3  12   3   38.70   15.36
   3  12   3   24.02   20.37
   3  12   3   33.06   22.34
  -3 -12  -3   20.52   18.88
  -3  12  -3   29.08   23.84
   3 -12   3   16.62   18.14
   3 -12   3   37.91   22.80
   3  12   4  154.89   55.61
   3  12   4  142.95   49.37
  -3  12  -4  114.14   58.84
   3 -12   4  134.51   46.99
   3  12   5  196.89   65.73
   3  12   5  127.82   55.17
  -3  12  -5  120.92   67.09
   3 -12   5  166.52   55.96
   3  12   6  311.10  107.55
  -3  12  -6  245.02  110.13
   3 -12   6  229.26   88.89
   3  12   7  190.39   64.59
   3  12   7  132.30   60.41
  -3  12  -7  131.58   67.62
   3 -12   7  124.01   57.11
   3  12   8   52.72   27.54
  -3  12  -8   36.81   28.02
   3 -12   8   27.73   29.93
   3  12   9   21.06   25.51
   3  12   9   -1.10   37.86
  -3  12  -9    3.75   21.77
   3 -12   9   -1.68   30.00
   3  12  10   -0.80   21.44
   3  12  10   11.91   44.12
   3 -12  10   -2.82   32.96
   3  13   0  183.49   53.37
   3  13   0  143.69   42.94
  -3 -13   0  110.50   51.92
  -3 -13   0  152.46   40.33
  -3  13   0  134.69   53.88
   3 -13   0   66.82   51.27
   3 -13   0  162.93   42.47
   3  13   1  738.19  163.55
   3  13   1  515.24  164.20
   3  13   1  493.79  131.56
  -3 -13  -1  109.44  162.19
  -3 -13  -1  458.16  131.09
  -3  13  -1  474.16  164.66
  -3  13  -1  491.06  129.61
   3 -13   1  242.89  162.20
   3 -13   1  605.80  132.45
   3  13   2   22.33   16.33
   3  13   2    3.20   19.09
   3  13   2   48.80   28.21
  -3 -13  -2   -4.30   18.68
  -3  13  -2   18.94   26.88
  -3  13  -2   36.54   10.30
   3 -13   2    8.58   15.13
   3 -13   2   33.87   20.55
   3  13   3  139.69   44.54
   3  13   3  105.22   40.38
  -3 -13  -3   39.75   37.84
  -3  13  -3  109.28   51.77
   3 -13   3   98.72   40.85
   3  13   4  100.74   36.71
   3  13   4   73.01   38.10
  -3  13  -4   68.29   39.24
   3 -13   4   73.96   35.57
   3  13   5  109.21   39.76
   3  13   5   67.92   38.25
  -3  13  -5   73.85   41.99
   3 -13   5   78.02   34.48
   3  13   6   61.57   29.73
   3  13   6   52.75   33.53
  -3  13  -6   40.99   32.41
   3 -13   6   58.18   30.51
   3  13   7 2036.48  623.26
   3  13   7 1230.28  502.12
  -3  13  -7 1356.55  625.04
   3 -13   7 1309.52  501.16
   3  13   8  129.57   49.53
  -3  13  -8   86.01   50.44
   3 -13   8   65.06   42.96
   3  13   9  173.56   49.19
   3  13   9   28.39   58.02
  -3  13  -9    6.37   47.10
   3 -13   9   94.53   49.87
   3  13  10   55.19   33.01
  -3  13 -10    6.71   41.23
   3 -13  10   68.76   55.85
   3  14   0   32.26   21.85
   3  14   0   24.22   21.88
  -3 -14   0   20.00   20.17
  -3 -14   0   32.35   12.07
  -3 -14   0   22.53   16.90
  -3  14   0   29.91   21.97
  -3  14   0   45.38   10.69
   3 -14   0    7.16   17.91
   3 -14   0   38.15   19.64
   3  14   1   40.75   19.60
   3  14   1   30.35   20.10
  -3 -14  -1   24.10   13.32
  -3 -14  -1   23.25   17.44
  -3  14  -1   18.52   21.52
  -3  14  -1   38.39   10.25
   3 -14   1    4.30   15.90
   3 -14   1   18.15   18.27
   3  14   2 1511.08  510.64
   3  14   2 1847.33  411.61
  -3  14  -2 1102.25  512.23
  -3  14  -2 1798.95  409.63
   3 -14   2  442.51  509.84
   3 -14   2 2200.44  412.67
   3  14   3  620.15  217.57
   3  14   3  467.98  175.74
  -3  14  -3  505.80  220.66
   3 -14   3  652.23  176.91
   3  14   4   16.42   28.29
  -3  14  -4   15.60   19.81
   3 -14   4   19.38   25.11
   3  14   5   29.43   17.60
   3  14   5   12.81   26.87
  -3  14  -5   14.83   24.90
   3 -14   5   23.11   20.80
   3  14   6  726.42  230.90
   3  14   6  467.10  187.36
  -3  14  -6  501.97  233.69
   3 -14   6  530.06  186.36
   3  14   7  368.29  117.58
   3  14   7  170.42   97.11
  -3  14  -7  254.39  120.06
   3 -14   7  252.21   94.85
   3  14   8  389.03   92.12
   3  14   8   27.41   81.15
  -3  14  -8  -10.51   90.65
   3 -14   8  228.89   78.38
   3  14   9  473.71  114.93
   3  14   9   14.75   95.36
  -3  14  -9    9.95  114.17
   3 -14   9  332.98   99.42
   3  14  10   16.25   30.08
   3 -14  10    1.38   54.53
   3  15   0  322.38   98.55
  -3 -15   0  120.52   97.15
  -3  15   0  272.11   99.45
  -3  15   0  400.30   76.59
   3 -15   0  104.23   96.45
   3 -15   0  412.54   79.88
   3  15   1 1972.13  614.19
  -3 -15  -1 1573.52  492.21
  -3  15  -1 1336.33  615.25
  -3  15  -1 2451.13  492.72
   3 -15   1  473.17  612.80
   3 -15   1 2501.63  494.55
   3  15   2  292.72   90.83
  -3 -15  -2  114.75   87.69
  -3  15  -2  241.84  110.84
  -3  15  -2  338.69   85.92
   3 -15   2  349.19   92.83
   3  15   3  896.06  359.59
   3  15   3  700.24  289.27
  -3  15  -3  744.52  362.07
  -3  15  -3 1119.20  288.06
   3 -15   3 1066.47  290.53
   3  15   4  113.56   39.46
   3  15   4   61.61   38.69
  -3  15  -4   73.04   48.54
   3 -15   4   90.84   39.10
   3  15   5    6.35   14.70
   3  15   5   -1.98   27.93
  -3  15  -5    1.38   18.00
   3 -15   5   -9.27   21.69
   3  15   6  449.02  133.85
   3  15   6  235.09  110.76
  -3  15  -6  240.40  135.92
   3 -15   6  285.33  109.07
   3  15   7  881.36  273.28
  -3  15  -7  513.48  275.40
   3 -15   7  553.73  220.10
   3  15   8 1230.12  272.01
   3  15   8    4.73  218.32
  -3  15  -8   -1.92  271.32
   3 -15   8  749.07  219.76
   3  15   9   81.91   35.27
  -3  15  -9   11.60   37.66
   3 -15   9   44.52   44.14
   3  16   0  293.81  150.45
  -3  16   0  257.82  151.34
  -3  16   0  492.67  118.72
   3 -16   0  448.54  120.96
   3  16   1  839.10  417.32
  -3  16  -1  648.46  418.59
  -3  16  -1 1422.18  334.35
   3 -16   1 1257.58  336.00
   3  16   2 1108.05  380.04
   3  16   2  770.99  305.19
  -3  16  -2  817.84  381.60
  -3  16  -2 1028.84  303.91
   3 -16   2 1229.76  306.85
  -3  16  -3  662.50  339.59
  -3  16  -3  979.71  269.45
   3 -16   3  892.25  272.03
   3  16   4  309.12   98.10
   3  16   4  166.61   81.44
  -3  16  -4  244.91  102.89
  -3  16  -4  233.49   76.56
   3 -16   4  248.01   82.72
   3  16   5  580.81  182.99
  -3  16  -5  261.79  184.74
   3  16   6  176.61   60.73
   3  16   6   90.07   56.45
  -3  16  -6  126.36   64.13
   3 -16   6  119.71   53.73
   3  16   7   18.00   19.55
   3  16   7  -10.72   39.84
  -3  16  -7    8.46   33.93
   3 -16   7   16.45   32.06
   3  16   8  238.68   64.38
   3  16   8   19.32   64.07
  -3  16  -8    2.76   68.25
   3 -16   8  166.15   59.02
   3  16   9   47.65   31.92
  -3  16  -9    8.56   30.07
   3 -16   9   34.49   41.41
   3  17   0 1107.65  470.36
  -3  17   0  815.36  471.24
  -3  17   0 1339.36  376.27
   3 -17   0 1802.26  378.55
   3  17   1   -5.75   18.81
  -3  17  -1   28.07    9.63
   3 -17   1   26.82   22.18
   3  17   2   66.06   26.59
   3  17   2   21.43   28.45
  -3  17  -2   50.16   31.53
  -3  17  -2   43.99   16.73
   3 -17   2   36.64   31.60
   3  17   3  154.24   52.09
   3  17   3   78.19   50.74
  -3  17  -3  103.03   59.04
  -3  17  -3  115.60   38.45
   3 -17   3  127.35   51.28
   3  17   4  126.00   45.35
   3  17   4   62.31   43.57
  -3  17  -4   90.09   52.31
  -3  17  -4   92.38   32.91
   3 -17   4  123.95   49.19
   3  17   5  218.75   71.57
   3  17   5   85.97   64.59
   3 -17   5  146.40   62.32
   3  17   6 1139.86  299.14
   3  17   6    9.93  239.21
  -3  17  -6  539.91  300.99
   3 -17   6  724.77  241.62
   3  17   7   30.71   25.58
   3  17   7   -0.78   41.61
  -3  17  -7   -0.42   36.10
   3 -17   7   31.42   34.97
   3  17   8   43.59   26.83
   3  17   8    3.73   50.24
  -3  17  -8   23.73   40.92
   3 -17   8   41.68   38.59
   3  17   9   23.26   26.34
   3  18   0   18.20   28.75
  -3  18   0   10.08   27.19
  -3  18   0   36.76   13.67
   3 -18   0   70.11   27.53
   3  18   1   17.74   30.97
  -3  18  -1    9.89   32.61
  -3  18  -1   72.98   17.28
   3 -18   1   69.77   26.33
   3  18   2  524.20  188.43
  -3  18  -2  360.59  189.73
   3 -18   2  582.65  153.10
   3  18   3  195.52   61.40
   3  18   3   78.87   59.46
  -3  18  -3  144.73   67.71
  -3  18  -3  120.30   43.56
   3 -18   3  143.62   54.04
   3  18   4   92.62   36.83
   3  18   4   28.08   41.84
  -3  18  -4   42.58   42.30
  -3  18  -4   57.26   21.44
   3  18   5   17.69   17.09
   3  18   5   28.02   41.39
  -3  18  -5   12.66   29.66
  -3  18  -5    6.90   11.87
   3 -18   5   16.39   39.74
   3  18   6   90.40   29.26
   3  18   6   25.17   45.55
  -3  18  -6    0.00   35.89
   3 -18   6   41.58   32.69
   3  18   7   11.34   18.05
   3  18   7  -19.09   44.69
  -3  18  -7    1.23   35.07
   3 -18   7  -14.74   36.12
   3  18   8    4.74   21.86
  -3  18  -8    7.49   40.41
   3 -18   8    0.51   32.37
   3  19   0  304.27  124.57
  -3  19   0  262.17  126.22
  -3  19   0  332.44   96.10
   3 -19   0  357.04  100.52
   3  19   1  422.25  153.51
  -3  19  -1  303.15  154.84
  -3  19  -1  424.46  119.90
   3 -19   1  372.33  122.20
   3  19   2   65.11   35.45
  -3  19  -2   56.92   44.68
  -3  19  -2   54.82   21.00
   3 -19   2   49.61   32.70
   3  19   3   -4.34   26.36
  -3  19  -3   -9.82   37.75
  -3  19  -3    7.89   11.86
   3 -19   3    5.97   23.79
   3  19   4   36.85   29.46
   3  19   4   10.91   38.31
  -3  19  -4   22.83   35.42
  -3  19  -4   15.73   15.05
   3 -19   4   27.83   35.37
   3  19   5  104.71   33.18
   3  19   5   14.98   41.33
  -3  19  -5   -5.08   46.16
  -3  19  -5   58.34   20.73
   3 -19   5   58.23   42.55
   3  19   6  261.04   41.05
   3  19   6   11.25   73.11
  -3  19  -6   -3.25   44.25
  -3  19  -6    3.28   26.24
   3 -19   6  158.67   53.93
   3  19   7  484.92  117.68
  -3  19  -7    1.82  118.12
   3 -19   7  177.18   96.12
   3  20   0   13.40   27.80
  -3  20   0   59.97   18.82
   3 -20   0   57.32   36.07
   3  20   1  430.02  194.42
  -3  20  -1  422.66  197.05
  -3  20  -1  569.61  153.40
   3 -20   1  535.43  156.23
   3  20   2  253.46  123.10
  -3  20  -2  282.66  127.15
  -3  20  -2  375.30   96.11
   3 -20   2  260.51  100.06
   3  20   3  224.55   87.35
  -3  20  -3  240.31   91.97
   3 -20   3  159.59   68.05
   3  20   4  179.38   53.34
   3  20   4    3.73   52.57
  -3  20  -4    4.74   60.63
  -3  20  -4  116.67   35.78
   3 -20   4   97.72   42.35
   3  20   5  287.57   49.34
   3  20   5   42.03   59.87
  -3  20  -5   17.80   60.02
  -3  20  -5    4.99   31.15
   3 -20   5  184.56   57.92
   3  20   6  296.62   84.11
  -3  20  -6    1.77   82.65
   3 -20   6  200.00   81.00
   3  20   7   26.59   21.36
  -3  20  -7   -8.27   27.86
  -3  20  -7    0.70   12.26
   3 -20   7    9.29   50.54
   3  21   0  272.87  150.68
  -3  21   0  332.98  153.87
  -3  21   0  470.24  118.60
   3  21   1  203.18   89.62
  -3  21  -1  172.91   89.77
  -3  21  -1  231.90   65.46
   3 -21   1  204.20   71.54
   3  21   2  164.01   88.09
  -3  21  -2  177.76   94.67
  -3  21  -2  264.77   67.38
   3 -21   2  173.58   72.11
  -3  21  -3   44.62   19.79
   3 -21   3   27.74   34.83
   3  21   4  132.95   49.05
  -3  21  -4    8.12   52.73
   3 -21   4   74.21   38.59
   3  21   5  152.44   36.00
  -3  21  -5    6.40   44.31
  -3  21  -5    0.16   18.11
   3  21   6  319.17   55.38
  -3  21  -6    1.58   46.80
  -3  21  -6   -2.88   30.68
   3 -21   6  152.60   62.29
   3  22   0   70.08   49.81
  -3  22   0    1.70   51.83
  -3  22   0  147.38   34.55
   3  22   1   73.45   44.73
  -3  22  -1    3.02   50.36
  -3  22  -1  105.15   27.73
   3 -22   1   77.14   43.46
   3  22   2  343.31   68.89
  -3  22  -2   -0.12   69.08
  -3  22  -2    3.70   42.96
   3 -22   2  381.70   60.02
   3  22   3  646.21  100.11
  -3  22  -3   -7.51   99.04
  -3  22  -3    8.79   72.21
   3 -22   3  588.59   86.49
   3  22   4    9.54   32.40
  -3  22  -4   21.25   49.56
  -3  22  -4   -5.14   16.21
   3 -22   4  -18.00   32.06
   3  22   5  152.10   38.33
  -3  22  -5    5.67   55.28
  -3  22  -5   -0.04   20.50
   3 -22   5   47.97   33.78
   3  22   6  205.85   69.00
  -3  22  -6    9.25   63.85
   3  23   0  348.92   53.96
  -3  23   0  -11.19   50.78
  -3  23   0    7.62   32.56
   3  23   1  248.56   50.92
  -3  23  -1   17.01   50.08
  -3  23  -1    0.05   23.54
   3  23   2  133.76   39.94
  -3  23  -2   -3.94   41.70
  -3  23  -2    1.16   16.48
   3 -23   2   88.46   35.94
   3  23   3  578.84   86.46
  -3  23  -3   19.15   90.33
  -3  23  -3    3.35   59.61
   3 -23   3  404.76   75.08
  -3  23  -4   11.53   45.15
  -3  23  -4   -0.16   15.94
   3 -23   4  142.08   38.94
   3  23   5   12.92   30.80
  -3  23  -5  -11.14   46.60
   3  24   0  101.51   32.48
  -3  24   0   -6.77   46.58
  -3  24   0   -1.41   20.51
   3  24   1  241.82   42.81
  -3  24  -1   -5.04   45.18
  -3  24  -1    1.80   26.13
   3  24   2   12.09   41.82
  -3  24  -2   -0.66   39.58
  -3  24  -2   -4.68   13.89
   3  24   3  234.99   48.26
  -3  24  -3   17.92   59.36
  -3  24  -3   -2.75   20.94
   3  24   4   92.01   43.58
  -3  24  -4   11.08   53.43
   3  25   0  166.20   39.94
  -3  25   0   -3.49   44.70
  -3  25   0    3.23   21.84
   3  25   1   76.40   37.39
  -3  25  -1    4.25   40.57
  -3  25  -1    1.35   17.75
   3  25   2   -6.90   37.12
  -3  25  -2  -35.37   53.82
  -3  25  -2    3.10   20.43
   3  25   3    8.78   45.33
   3  26   0    8.10   37.35
   3  26   1   18.00   31.73
   3  26   2  320.43  131.04
   4   0   0  772.44  232.36
   4   0   1    0.96   24.54
  -4   0  -1    1.64   10.13
   4   0   2   38.22   22.70
   4   0   3   -2.33   11.07
   4   0   3    6.04   14.17
   4   0   3    8.74   17.96
   4   0   4 3183.62  951.03
   4   0   5   -4.72   17.56
   4   0   5    8.16   28.60
   4   0   6   19.52   22.14
   4   0   6   27.40   26.50
   4   0   7   -7.96   28.15
   4   0   8    5.51   20.35
   4   0   8   19.61   27.91
   4   0   9   -5.19   44.31
   4   1   0  181.43   66.11
  -4  -1   0  202.46   62.43
  -4   1   0  208.12   62.52
   4  -1   0  234.43   66.25
   4   1   1   14.49   21.14
  -4  -1  -1   17.44   10.47
  -4   1  -1   22.74   10.55
   4  -1   1   17.14   22.96
   4   1   2  186.18   60.93
   4  -1   2  183.38   59.63
   4   1   3  489.74  159.10
   4   1   3  391.52  160.39
   4   1   3  770.09  130.74
   4  -1   3  400.54  158.72
   4  -1   3   53.19  158.83
   4  -1   3  702.08  129.87
   4   1   4   83.97   30.69
   4  -1   4   58.04   33.13
   4  -1   4  105.39   30.70
   4   1   5  636.25  192.59
   4  -1   5  632.53  192.46
   4   1   6    2.04   20.68
   4   1   6    9.03   30.91
   4  -1   6    7.44   17.05
   4  -1   6   12.15   30.77
   4   1   7   34.65   24.54
   4   1   7   29.25   33.24
   4  -1   7   17.41   21.93
   4  -1   7   41.64   29.83
   4   1   8   40.77   32.09
   4   1   8   40.37   28.36
   4  -1   8   43.63   29.51
   4  -1   8   63.50   38.84
   4   1   9  857.19  262.35
   4  -1   9  835.51  261.62
   4   2   0   13.18   21.52
  -4  -2   0    5.55    8.21
   4  -2   0   14.58   30.06
   4   2   1   40.14   22.72
  -4  -2  -1   31.55   12.08
  -4   2  -1   32.79   13.30
   4  -2   1   26.10   29.52
   4   2   2   18.02   20.10
   4  -2   2   29.00   20.90
   4   2   3  312.23  121.53
   4   2   3  288.01  123.07
   4   2   3  529.33   99.68
   4  -2   3  206.76  120.88
   4  -2   3  528.61   99.60
   4   2   4  404.93  177.14
   4   2   4  662.66  144.95
   4  -2   4  396.17  177.28
   4  -2   4  689.54  144.77
   4   2   5   42.09   25.31
   4   2   5   75.66   33.15
   4  -2   5   39.23   24.87
   4  -2   5   63.47   31.81
   4   2   6   37.65   27.62
   4   2   6   63.14   29.84
   4  -2   6   31.39   25.29
   4  -2   6   65.40   29.33
   4   2   7   -5.14   23.95
   4   2   7    6.27   24.51
   4  -2   7   -6.44   33.70
   4   2   8  245.90   93.34
   4  -2   8  338.91   96.19
   4   2   9   80.78   54.48
   4  -2   9   89.26   52.68
   4   3   0  254.63   81.57
  -4  -3   0  240.90   78.45
  -4   3   0  268.65   78.66
   4  -3   0  302.21   82.83
   4   3   1   23.90   17.59
  -4  -3  -1   21.44    9.56
  -4   3  -1   22.34   10.93
   4  -3   1   17.03   26.03
   4   3   2   37.62   21.64
   4  -3   2   31.29   25.95
   4   3   3   35.62   19.28
   4   3   3   29.69   21.92
   4   3   3   69.90   22.69
   4  -3   3   21.11   19.69
   4  -3   3   59.37   26.23
   4   3   4  218.93   74.05
   4  -3   4  246.74   73.92
   4   3   5    3.19   15.29
   4   3   5    3.32   23.01
   4  -3   5    2.00   14.59
   4  -3   5    0.26   26.02
   4   3   6   -0.10   21.65
   4   3   6   -3.20   31.55
   4  -3   6    7.22   19.69
   4  -3   6   -4.99   24.97
   4   3   7  143.06   62.98
   4   3   7  134.73   53.28
   4  -3   7  140.17   64.56
   4  -3   7  195.16   54.75
   4   3   8   38.58   30.56
   4   3   8   27.47   33.27
   4  -3   8   41.29   31.33
   4  -3   8   64.32   34.76
   4   3   9  162.34   74.15
   4  -3   9  119.48   62.26
   4   4   0   35.50   20.59
  -4  -4   0   33.47   12.06
  -4   4   0   29.71   13.19
   4  -4   0   36.22   30.78
   4   4   1  333.35   92.73
  -4  -4  -1  259.66   89.87
  -4   4  -1  307.63   90.18
   4  -4   1  370.63   94.29
   4   4   2    7.56   18.68
   4   4   3    9.62   12.15
   4   4   3   -1.65   21.99
   4  -4   3    5.01   11.21
   4  -4   3   14.99   20.34
   4   4   4   87.95   40.38
   4   4   4  132.59   36.02
   4  -4   4   58.24   38.78
   4  -4   4  140.66   35.01
   4   4   5  509.22  227.05
   4   4   5  727.33  184.06
   4  -4   5  781.37  183.55
   4   4   6   29.71   23.26
   4   4   6   47.74   34.14
   4  -4   6   21.26   27.57
   4  -4   6   43.57   26.78
   4   4   7   10.61   21.44
   4   4   7   12.68   30.11
   4  -4   7    6.07   29.70
   4  -4   7   33.24   28.21
   4   4   8    3.33   25.74
   4   4   8    3.20   24.61
   4  -4   8   13.09   34.13
   4  -4   8   19.91   30.16
   4   4   9    2.59   47.20
   4  -4   9   -9.50   43.34
  -4  -5   0  100.89   38.43
  -4   5   0  142.51   38.69
   4  -5   0  145.52   44.97
   4   5   1  115.53   43.87
  -4  -5  -1  108.98   39.04
  -4   5  -1  138.37   39.25
   4  -5   1  157.48   50.45
   4   5   2   50.93   26.00
   4  -5   2   60.25   26.23
   4   5   3  170.90   64.35
   4   5   3  255.34   56.16
   4  -5   3   91.29   63.84
   4  -5   3  252.32   55.18
   4   5   4   25.79   21.65
   4   5   4   39.47   23.37
   4  -5   4   11.73   21.54
   4  -5   4   41.18   21.44
   4   5   5    4.20   20.27
   4   5   5    8.64   29.11
   4  -5   5    2.58   23.70
   4  -5   5   14.80   21.21
   4   5   6    9.23   18.13
   4   5   6    8.48   26.44
   4  -5   6    3.82   24.74
   4  -5   6   13.73   23.44
   4   5   7   63.42   36.15
   4   5   7   68.08   32.74
   4  -5   7   71.27   42.93
   4  -5   7   95.30   36.11
   4   5   8   15.07   21.40
   4   5   8   18.91   25.95
   4  -5   8   16.94   36.63
   4  -5   8   28.70   31.07
   4   5   9  571.19  187.04
   4  -5   9  609.50  185.40
   4   6   0    3.82   21.19
  -4  -6   0    8.46   10.82
  -4   6   0   14.84   10.90
   4  -6   0   19.82   21.80
   4   6   1    7.27   23.98
  -4  -6  -1   11.24   12.05
  -4   6  -1   12.60    9.46
   4  -6   1    5.51   26.38
   4   6   2   11.51   13.84
   4   6   2   -3.17   20.55
  -4   6  -2   11.58    9.53
   4  -6   2    8.33   19.48
   4   6   3   75.04   38.14
   4   6   3  118.06   37.24
   4  -6   3  113.06   35.45
   4   6   4 1233.86  459.19
   4   6   4 1604.26  370.53
   4  -6   4  959.38  459.52
   4  -6   4 1557.48  369.85
   4   6   5   21.98   25.32
   4   6   5   53.68   32.15
   4  -6   5   46.99   24.29
   4   6   6   67.75   33.55
   4   6   6   85.54   34.62
   4  -6   6   42.59   39.38
   4  -6   6   85.42   30.99
   4   6   7   25.61   25.19
   4   6   7   32.93   28.21
   4  -6   7   30.73   35.33
   4  -6   7   42.37   29.23
   4   6   8  158.78   72.21
   4   6   8  173.73   62.14
   4  -6   8  175.01   78.29
   4  -6   8  201.02   62.61
   4   6   9   21.87   49.27
   4  -6   9   23.13   42.81
   4   7   0   31.54   25.45
  -4  -7   0   41.33   17.64
  -4   7   0   43.86   16.42
   4   7   1   47.90   28.90
  -4  -7  -1   54.43   22.16
  -4   7  -1   62.06   19.54
   4  -7   1   50.71   31.38
   4   7   2    4.95   13.91
   4   7   2    8.84   12.93
   4   7   2    2.55   26.46
  -4   7  -2    5.59   10.77
   4  -7   2   13.48   23.54
   4   7   3  577.18  252.83
   4   7   3  823.91  204.96
   4  -7   3  809.42  204.22
   4   7   4   81.62   35.00
   4   7   4  105.90   36.92
   4  -7   4   49.24   39.85
   4  -7   4  105.38   32.70
   4   7   5  518.81  216.21
   4   7   5  685.35  176.91
   4  -7   5  630.48  174.10
   4   7   6   79.51   43.38
   4   7   6   91.77   42.18
   4  -7   6  108.87   36.32
   4   7   7   45.31   30.31
   4   7   7   30.28   29.77
   4  -7   7   44.96   29.67
   4   7   8   17.25   28.28
   4   7   8  -12.58   36.12
   4  -7   8   14.86   30.49
   4   7   9   -5.00  112.22
   4  -7   9  610.73  116.29
   4   8   0  710.13  228.86
  -4  -8   0  748.07  227.24
  -4   8   0  746.92  227.04
   4  -8   0  883.91  229.65
   4   8   1   21.41   21.32
  -4  -8  -1   33.96   17.28
   4  -8   1   35.44   28.16
   4   8   2    3.07   16.06
   4   8   2   18.95   22.58
  -4   8  -2   15.41   11.50
   4  -8   2    1.27   27.76
   4   8   3  388.09  168.35
   4   8   3  544.35  138.72
   4  -8   3  510.71  137.36
   4   8   4 1529.52  501.81
   4   8   4 1855.40  405.57
  -4   8  -4 1396.45  503.77
   4  -8   4  640.94  501.90
   4  -8   4 1836.02  404.15
   4   8   5  194.69   69.72
  -4   8  -5  179.99   76.46
   4  -8   5   96.01   72.62
   4  -8   5  265.18   58.57
   4   8   6  127.63   45.16
   4   8   6  143.55   46.27
  -4   8  -6   -5.92   42.69
   4  -8   6   65.83   51.19
   4  -8   6  186.96   39.83
   4   8   7    3.08   28.72
   4   8   7   -5.56   26.52
   4  -8   7    4.94   36.79
   4  -8   7    3.72   24.58
   4   8   8    3.43   30.99
   4  -8   8   14.57   28.98
   4  -8   9   16.24   43.04
   4   9   0  790.57  252.48
  -4  -9   0  791.83  250.78
  -4   9   0  857.52  250.63
   4  -9   0  974.57  253.01
   4   9   1    7.15   15.91
   4   9   1   14.21   23.48
  -4  -9  -1   26.50   13.64
  -4   9  -1   18.49   12.62
   4  -9   1   32.90   27.59
   4   9   2  572.12  166.32
   4   9   2  439.65  135.08
  -4   9  -2  511.90  131.58
   4  -9   2   98.61  164.98
   4  -9   2  571.24  135.16
   4   9   3  325.58  139.01
   4   9   3  387.70  115.33
   4  -9   3  449.06  114.00
   4   9   4   45.60   37.16
  -4   9  -4   41.65   40.10
   4  -9   4   59.39   27.31
   4   9   5  225.58   88.93
  -4   9  -5  202.84   95.54
   4  -9   5  265.11   74.95
   4   9   6    3.80   23.57
   4   9   6   -8.86   40.22
  -4   9  -6   -2.72   22.77
   4  -9   6   -3.00   22.73
   4   9   7    8.71   24.64
   4   9   7   12.22   37.72
  -4   9  -7    1.22   25.72
   4  -9   7    9.21   39.61
   4  -9   7    1.06   30.24
   4   9   8    3.48   57.14
   4  -9   8  283.36   63.36
   4  -9   9  170.32   68.28
   4  10   0    2.46   24.45
  -4  10   0    7.91    8.86
   4 -10   0   -7.67   27.28
   4  10   1   19.24   23.23
  -4 -10  -1   26.28   16.27
  -4  10  -1   24.24   11.41
   4 -10   1   22.51   26.10
   4  10   2   59.76   30.58
   4  10   2   52.34   32.90
  -4  10  -2    4.35   31.65
  -4  10  -2   65.51   19.02
   4 -10   2   71.92   33.32
   4  10   3  334.65  118.97
   4  10   3  335.30   99.53
  -4  10  -3   88.07  119.90
  -4  10  -3  348.28   93.18
   4 -10   3  384.41   97.72
   4  10   4    3.95   15.32
   4  10   4    4.29   35.16
  -4  10  -4   -5.27   23.95
   4 -10   4    5.35   26.90
   4  10   5  219.41   78.71
   4  10   5  217.87   71.55
  -4  10  -5  101.44   82.41
   4 -10   5  239.44   64.88
   4  10   6    4.88   24.56
   4  10   6   -6.39   42.09
  -4  10  -6    2.79   23.88
   4 -10   6   31.22   28.38
   4  10   7    8.96   28.15
   4  10   7  -10.07   39.40
  -4  10  -7    7.01   26.41
   4 -10   7    3.90   24.39
   4 -10   8  219.36   80.24
   4  11   0   21.82   34.29
   4  11   0   73.31   35.10
  -4 -11   0   74.46   27.86
  -4  11   0  101.98   25.70
   4 -11   0  107.97   37.42
   4  11   1   -1.45   23.03
  -4 -11  -1    1.32   13.73
  -4  11  -1    4.59    8.64
   4 -11   1    0.03   27.87
   4  11   2   93.07   45.75
  -4  11  -2  114.23   35.89
   4 -11   2  135.69   49.65
   4  11   3   12.27   19.94
   4  11   3   10.66   32.14
  -4  11  -3   -5.54   25.56
  -4  11  -3   10.39   11.36
   4 -11   3   16.15   29.48
   4  11   4  147.00   63.18
   4  11   4  165.00   60.79
   4 -11   4  168.29   53.39
   4  11   5    8.79   21.40
   4  11   5   -6.41   38.35
  -4  11  -5    6.22   30.10
   4 -11   5   15.94   23.87
   4  11   6   -1.82   20.71
   4  11   6    6.92   43.15
  -4  11  -6    4.45   30.32
   4 -11   6   10.75   24.61
   4  11   7   79.02   41.53
   4  11   7   15.33   40.87
   4 -11   7   84.23   34.07
   4 -11   8   17.83   35.03
   4  12   0   74.74   38.15
  -4 -12   0   70.38   29.15
  -4  12   0   99.81   27.44
   4 -12   0   98.54   34.86
   4  12   1  117.01   59.71
   4  12   1   96.83   47.84
  -4 -12  -1  102.52   42.90
  -4  12  -1  180.60   42.06
   4 -12   1  156.55   50.87
   4  12   2    4.98   33.29
  -4 -12  -2   14.15   15.39
  -4  12  -2    0.28   19.44
   4 -12   2   10.38   35.59
   4  12   3   96.70   51.49
  -4  12  -3   32.41   56.29
  -4  12  -3  155.88   39.82
   4 -12   3  169.55   50.09
   4  12   4  461.06  164.28
   4  12   4  110.23  134.07
  -4  12  -4  218.68  166.11
  -4  12  -4  504.02  129.40
   4 -12   4  604.55  133.11
   4  12   5   -6.80   38.78
   4 -12   5  134.29   38.59
   4  12   6   91.40   40.53
   4  12   6    7.64   42.55
   4  12   7  -16.83   47.37
   4 -12   7    9.17   31.98
   4 -12   8   22.47   35.62
   4  13   0    7.20   23.27
   4  13   0   49.69   37.76
  -4 -13   0   26.62   16.84
  -4  13   0   59.42   15.91
   4 -13   0   46.43   23.86
   4  13   1  135.46   56.58
   4  13   1  111.87   47.14
  -4 -13  -1   93.66   40.74
  -4  13  -1    9.68   52.11
  -4  13  -1  176.09   39.61
   4 -13   1  186.87   45.94
   4  13   2   81.15   36.22
   4  13   2   40.93   32.96
  -4 -13  -2   34.22   22.81
  -4  13  -2    3.42   30.18
  -4  13  -2   70.06   19.14
   4 -13   2   97.66   32.60
   4  13   3  398.59  121.04
   4  13   3  234.80   99.97
  -4  13  -3   78.58  120.21
  -4  13  -3  351.22   93.34
   4  13   4    4.02   29.31
   4  13   4   -0.78   38.82
  -4  13  -4   -8.19   28.49
  -4  13  -4    0.40    9.04
   4 -13   4    6.20   31.88
   4  13   5   -1.24   42.64
  -4  13  -5   -3.81   32.93
   4 -13   5    7.50   24.33
   4  13   6   47.49   29.15
   4  13   6   13.81   48.47
  -4  13  -6   -5.51   35.14
   4 -13   6   33.27   28.39
   4 -13   7   42.77   32.27
   4  14   0   15.90   35.83
   4  14   0   38.68   42.98
  -4  14   0   86.51   25.01
   4 -14   0  167.56   37.53
   4  14   1    4.45   29.31
   4  14   1    4.68   32.50
  -4  14  -1   -6.51   21.32
  -4  14  -1    2.18    8.32
   4 -14   1   10.22   24.09
   4  14   2    5.56   27.13
  -4  14  -2    4.38   22.19
  -4  14  -2    5.22    8.95
   4 -14   2    7.21   29.94
   4  14   3   35.39   27.36
   4  14   3    3.51   40.91
  -4  14  -3   -6.22   23.45
   4 -14   3    8.18   30.99
   4  14   4 1248.46  320.51
  -4  14  -4   91.25  318.11
  -4  14  -4  808.32  253.39
   4 -14   4 1070.33  257.21
   4  14   5  392.60  127.29
   4  14   5   13.17  110.19
  -4  14  -5   -6.01  128.52
  -4  14  -5  392.54   98.50
   4 -14   5  518.54  107.35
   4  14   6  -12.48   50.36
   4 -14   6    0.38   32.03
   4 -14   7   28.01   36.43
   4  15   0   54.42   60.76
  -4 -15   0   90.61   55.50
  -4  15   0   37.40   73.24
  -4  15   0  309.40   55.53
   4 -15   0  305.07   60.81
   4  15   1   61.92   41.49
   4  15   1   44.80   41.13
  -4 -15  -1   35.81   24.78
  -4  15  -1   14.18   35.18
  -4  15  -1  110.84   22.22
   4 -15   1   93.55   31.90
   4  15   2   70.90   44.14
   4  15   2    2.36   40.22
  -4  15  -2    3.33   39.20
  -4  15  -2  104.57   25.37
   4 -15   2  106.91   34.79
   4  15   3  482.06   95.76
   4  15   3   74.65   80.88
  -4 -15  -3   76.61   69.72
  -4  15  -3   49.82   91.53
  -4  15  -3  288.56   68.69
   4 -15   3  434.77   79.86
   4  15   4   74.85   41.06
   4  15   4   15.93   44.91
  -4  15  -4    4.78   39.89
  -4  15  -4   47.50   16.93
   4  15   5  -18.89   93.67
  -4  15  -5    5.33  111.51
  -4  15  -5  347.08   83.60
   4 -15   5  480.78   93.10
   4 -15   6  135.66   51.15
   4 -15   7    1.39   35.34
   4  16   0  164.11  213.52
  -4  16   0  716.14  169.69
   4 -16   0  582.76  171.65
   4  16   1   47.19   47.47
  -4 -16  -1   38.39   32.77
  -4  16  -1   10.41   46.31
  -4  16  -1  168.95   30.76
   4 -16   1  162.29   37.72
   4  16   2    2.03   37.31
  -4 -16  -2    6.61   18.32
  -4  16  -2   -0.94   28.33
  -4  16  -2   18.06    9.90
   4 -16   2   16.24   31.19
   4  16   3  827.90  166.82
   4  16   3   80.01  130.04
  -4 -16  -3  149.43  126.43
  -4  16  -3   19.74  160.70
  -4  16  -3  701.48  126.01
   4  16   4  394.36  103.72
   4  16   4   32.24   89.19
  -4  16  -4    1.63  103.16
  -4  16  -4  268.98   76.05
   4 -16   4  360.25   88.06
   4  16   5  333.19  102.01
  -4  16  -5  202.43   74.34
   4 -16   5  268.32   83.62
  -4  16  -6   95.81   33.58
   4 -16   6  145.71   59.33
  -4  17   0   74.49  205.27
  -4  17   0  639.55  161.63
   4 -17   0  664.21  165.10
   4  17   1   -2.57   30.51
  -4  17  -1   -4.27   33.13
  -4  17  -1   19.62    9.44
   4 -17   1   21.79   22.62
   4  17   2  284.66  155.75
  -4  17  -2  428.37  118.20
   4 -17   2  419.36  121.84
   4  17   3   16.05   38.69
  -4  17  -3    2.32   39.02
  -4  17  -3   26.80   13.20
   4 -17   3   22.21   28.24
   4  17   4   37.67   34.40
  -4  17  -4   18.84   13.72
   4 -17   4   20.55   31.94
  -4  17  -5   33.44   15.70
   4 -17   5   63.45   50.91
  -4  17  -6    0.98   12.76
   4 -17   6   13.49   45.94
   4  18   0  -19.11   41.77
  -4  18   0   -9.72   36.11
  -4  18   0   61.67   15.64
   4 -18   0   -7.34   25.15
   4  18   1   14.35   32.95
  -4  18  -1    6.55   36.63
  -4  18  -1   10.85    9.21
   4 -18   1   -2.87   27.60
   4  18   2   42.32   53.13
  -4  18  -2   73.99   22.13
   4 -18   2   68.13   31.55
   4  18   3    9.34   50.66
  -4  18  -3   24.08   11.50
   4 -18   3   12.88   28.16
  -4  18  -4  138.87   42.76
   4 -18   4   94.23   46.53
  -4  18  -5    2.70   15.68
   4 -18   5   61.96   45.02
   4  19   0   10.72   45.09
  -4  19   0   22.71   12.05
   4 -19   0   13.35   25.60
  -4  19  -1   15.45   12.93
   4 -19   1   20.00   23.22
  -4  19  -2  157.12   49.17
   4 -19   2  151.06   60.77
  -4  19  -3   35.65   16.72
   4 -19   3   21.88   32.67
  -4  19  -4    3.68   13.43
   4 -19   4   69.57   30.69
  -4  20   0   57.21   20.11
   4 -20   0   43.66   35.36
  -4  20  -1  125.36   37.34
   4 -20   1   88.77   47.72
  -4  20  -2    0.86   13.29
   4 -20   2   21.15   37.16
  -4  20  -3    3.25   23.34
   4 -20   3  295.11   49.31
  -4  21   0    1.81   16.60
  -4  21  -1    3.96   11.24
   4 -21   1   42.49   39.11
  -4  21  -2    3.56   16.26
   4 -21   2  103.35   41.53
  -4  22   0    7.59   19.00
  -4  22  -1   -4.13   11.40
   5   0   0  953.67  257.47
  -5   0   0  821.69  254.43
   5   0   1 1495.22  456.52
  -5   0  -1 1526.86  454.16
   5   0   2  959.66  237.62
  -5   0  -2  733.83  232.49
   5   0   3   64.74   35.97
  -5   0  -3   15.10   12.22
   5   0   5   11.43   35.04
   5   0   6  156.25   64.83
   5   1   0  322.38   98.68
  -5  -1   0  313.91   93.75
  -5   1   0  290.39   93.23
   5  -1   0  336.54   98.65
   5   1   1 1940.87  569.22
  -5  -1  -1 1870.19  567.34
  -5   1  -1 1893.00  567.36
   5  -1   1 2007.27  569.55
   5   1   2  611.95  219.89
  -5   1  -2  742.89  215.35
   5   1   3   15.37   34.33
  -5  -1  -3   10.75   10.57
  -5   1  -3   12.99   12.43
   5  -1   3   36.26   41.26
   5   1   4    7.78   26.52
   5  -1   4   16.38   32.12
   5   1   5   35.95   38.43
   5  -1   5   44.41   32.52
   5   1   6    7.53   39.44
   5  -1   6    6.36   32.56
   5   2   0  426.02  137.31
  -5  -2   0  463.85  133.78
  -5   2   0  428.05  133.18
   5  -2   0  435.56  136.10
   5   2   1  177.89   72.40
  -5   2  -1  223.09   65.32
   5  -2   1  207.33   70.25
  -5   2  -2   23.07   12.22
   5  -2   2   31.51   32.59
   5   2   3   33.06   38.80
  -5  -2  -3   21.02   16.58
  -5   2  -3    9.90   12.91
   5  -2   3   38.85   34.60
   5   2   4   26.50   31.26
  -5   2  -4   -0.79    9.52
   5  -2   4   28.75   26.41
   5   2   5  118.94   48.79
   5  -2   5   94.86   48.79
   5  -2   6  104.67   52.13
   5   3   0   21.96   26.30
  -5  -3   0   27.82   14.94
  -5   3   0   27.89   11.90
   5  -3   0   24.79   25.56
   5   3   1  173.64   75.12
  -5  -3  -1  231.64   69.27
  -5   3  -1  224.35   67.82
   5  -3   1  230.03   72.87
   5   3   2  430.81  127.55
  -5  -3  -2  370.81  119.14
   5  -3   2  444.94  125.48
   5   3   3   39.36   39.15
  -5  -3  -3   20.44   16.97
  -5   3  -3   12.02   11.47
   5  -3   3   50.87   34.98
  -5   3  -4   18.53   12.30
   5  -3   4   54.69   38.43
   5   3   5   -5.13   33.99
   5  -3   5   40.13   29.90
   5  -3   6    5.51   30.65
   5   4   0   55.60   37.50
  -5  -4   0   69.88   25.22
  -5   4   0   64.12   21.76
   5  -4   0   61.28   35.50
   5   4   1  276.62   96.38
  -5  -4  -1  300.31   91.31
  -5   4  -1  291.91   90.36
   5  -4   1  333.40   96.29
   5   4   2   16.33   44.36
  -5  -4  -2   17.81   19.23
  -5   4  -2   16.86   10.57
   5  -4   2   13.87   32.44
   5   4   3    8.71   38.89
  -5  -4  -3    8.53   15.49
  -5   4  -3    3.64   11.42
   5  -4   3    4.25   32.91
  -5   4  -4    7.19   10.01
   5  -4   4   15.01   31.83
   5   4   5    5.42   34.48
   5  -4   6   -5.12   37.22
   5   5   0    1.99   25.72
  -5  -5   0    5.16   12.80
   5  -5   0   -2.46   23.26
   5   5   1    7.95   94.05
  -5  -5  -1  312.04   92.67
  -5   5  -1  346.11   92.00
   5  -5   1  392.45   96.60
  -5  -5  -2  203.28   63.14
  -5   5  -2  185.58   61.82
   5  -5   2  269.83   73.04
   5   5   3    3.73   55.03
  -5  -5  -3   81.89   33.80
  -5   5  -3  115.03   29.44
   5   5   4    5.60   33.01
  -5   5  -4   27.01   15.00
   5  -5   4   64.82   38.19
   5  -5   5   83.27   43.95
   5  -5   6   -9.92   37.04
   5   6   0    6.04  101.25
  -5  -6   0  354.80   98.57
  -5   6   0  352.42   97.41
   5  -6   0  408.60  102.45
   5   6   1    3.04  134.79
  -5  -6  -1  506.61  133.37
  -5   6  -1  462.93  132.42
   5  -6   1  510.78  137.11
  -5  -6  -2   99.56   41.95
  -5   6  -2  140.65   39.04
   5  -6   2  159.85   49.47
   5   6   3  -10.89   49.72
  -5  -6  -3   -0.17   19.51
  -5   6  -3    5.13    9.47
   5  -6   3    9.24   33.13
  -5   6  -4   12.70   11.03
   5  -6   4   13.35   43.47
  -5   6  -5   -2.97   10.12
   5  -6   5    7.96   27.37
   5   7   0    4.46   53.74
  -5  -7   0  150.40   45.98
  -5   7   0  162.99   43.65
   5  -7   0  159.45   49.01
   5   7   1   -8.00  459.88
  -5  -7  -1 1512.43  460.36
  -5   7  -1 1823.19  460.04
   5  -7   1 2036.71  462.51
   5   7   2   14.05  233.11
  -5  -7  -2  634.09  229.81
  -5   7  -2 1025.53  229.84
   5  -7   2  946.98  232.75
   5   7   3    9.90   43.07
  -5  -7  -3    8.22   20.75
  -5   7  -3   67.57   17.52
   5  -7   3   88.60   36.82
   5   7   4  -10.68   40.98
  -5  -7  -4   -4.54   16.57
  -5   7  -4   -2.76    9.99
   5  -7   4   14.16   44.21
  -5   7  -5   22.50   14.61
   5  -7   5   25.71   40.28
   5   8   0  -13.63  230.69
  -5  -8   0  799.03  230.07
  -5   8   0  907.51  229.46
   5  -8   0  913.07  232.27
   5   8   1    7.77  282.71
  -5  -8  -1  968.80  282.61
  -5   8  -1 1093.35  282.05
   5  -8   1 1169.23  284.73
  -5  -8  -2  420.08  166.35
  -5   8  -2  684.66  166.02
   5   8   3    8.76   52.74
  -5  -8  -3   -0.63   21.96
   5  -8   3  130.42   43.68
   5   8   4   -9.96   34.89
  -5   8  -4   17.64   14.62
   5  -8   4   77.02   46.03
  -5   8  -5   67.44   30.06
   5  -8   5  203.26   58.38
   5   9   0   -2.59  142.16
  -5  -9   0  459.60  140.25
  -5   9   0  568.23  139.27
   5  -9   0  556.06  143.04
   5   9   1   -7.67  176.96
  -5  -9  -1  541.90  175.64
  -5   9  -1  733.03  175.03
   5  -9   1  727.81  178.24
   5   9   2    1.27  101.82
  -5  -9  -2  243.83   95.60
  -5   9  -2  418.47   94.41
   5  -9   2  438.49  101.42
  -5  -9  -3    8.45   31.20
  -5   9  -3  120.58   26.31
   5  -9   3  157.70   53.89
  -5   9  -4   32.37   17.54
   5  -9   4   68.87   47.55
  -5   9  -5   22.64   17.05
   5  -9   5  146.66   53.83
   5  10   0   -9.71   83.13
  -5 -10   0  233.37   78.75
  -5  10   0  326.33   76.16
   5 -10   0  295.00   80.00
   5  10   1  -12.99   39.28
  -5 -10  -1   26.89   19.92
  -5  10  -1   36.61   12.37
   5 -10   1   30.27   26.11
   5  10   2  -12.95   39.54
  -5 -10  -2   -1.90   19.16
  -5  10  -2    5.41    9.37
   5 -10   2    5.75   32.61
  -5  10  -3   46.32   19.03
   5 -10   3   43.89   44.61
  -5  10  -4   46.78   20.54
   5 -10   4   59.17   47.97
   5  11   0  -17.72   30.86
  -5  11   0   23.03   11.53
   5 -11   0   11.03   22.63
  -5  11  -1  265.07   81.10
   5 -11   1  276.73   87.11
  -5  11  -2  427.35  124.96
   5 -11   2  359.93  130.24
  -5  11  -3    2.36   12.26
   5 -11   3    3.98   35.95
  -5  11  -4   41.45   20.52
   5 -11   4   65.07   48.25
  -5  12   0   69.52   23.39
   5 -12   0   53.89   30.53
  -5  12  -1  288.07   88.14
   5 -12   1  297.38   96.41
  -5  12  -2   13.29   12.71
   5 -12   2    4.09   35.46
  -5  12  -3   15.33   13.35
   5 -12   3    8.15   30.64
  -5  12  -4    5.13   12.63
   5 -12   4    5.34   38.89
  -5  13   0   72.07   27.43
   5 -13   0   76.82   38.30
  -5  13  -1  329.53   95.52
   5 -13   1  259.37  100.89
  -5  13  -2  139.03   42.45
   5 -13   2  112.26   55.74
  -5  13  -3  168.42   52.27
   5 -13   3  156.56   60.30
  -5  14   0  289.98   85.47
   5 -14   0  238.88   89.14
  -5  14  -1  399.82  118.48
   5 -14   1  364.54  123.09
  -5  14  -2  250.60   73.25
   5 -14   2  193.12   80.20
  -5  15   0  357.85  100.24
   5 -15   0  239.03  103.18
  -5  15  -1  738.08  213.26
   5 -15   1  611.92  216.21
  -5  16   0  498.74  134.33
   5 -16   0  273.64  136.46
   0   0   0    0.00    0.00

_computing_structure_solution     'SHELXT 2014/5 (Sheldrick, 2014)'
;
_shelx_hkl_checksum              48854
loop_
_space_group_symop_operation_xyz
'x, y, z'
'-x, y+1/2, -z+1/2'
'-x, -y, -z'
'x, -y-1/2, z-1/2'
loop_
_atom_site_label
_atom_site_type_symbol
_atom_site_fract_x
_atom_site_fract_y
_atom_site_fract_z
_atom_site_U_iso_or_equiv
_atom_site_adp_type
_atom_site_occupancy
_atom_site_site_symmetry_order
_atom_site_calc_flag
_atom_site_refinement_flags_posn
_atom_site_refinement_flags_adp
Pb1 Pb 0.2876(2) 0.42475(4) 0.59303(8) 0.0112(4) Uani 1 1 d . .
I1 I 0.7301(3) 0.43931(6) 0.39922(10) 0.0109(4) Uani 1 1 d . .
I2 I 0.2687(3) 0.30588(5) 0.55973(11) 0.0140(4) Uani 1 1 d . .
I3 I 0.8502(3) 0.42053(6) 0.78028(11) 0.0137(4) Uani 1 1 d . .
O1 O 0.154(3) 0.3361(6) 0.2136(12) 0.0158(19) Uani 1 1 d . .
N1 N 0.353(4) 0.3908(7) 0.0969(15) 0.0158(19) Uani 1 1 d . .
C1 C 0.201(5) 0.3805(9) 0.1803(19) 0.0158(19) Uani 1 1 d . .
H1 H 0.1222 0.4093 0.2170 0.019 Uiso 1 1 calc R U
C2 C 0.461(5) 0.3505(9) 0.0287(19) 0.0158(19) Uani 1 1 d . .
H2A H 0.6772 0.3498 0.0410 0.024 Uiso 1 1 calc R U
H2B H 0.3966 0.3581 -0.0497 0.024 Uiso 1 1 calc R U
H2C H 0.3833 0.3163 0.0484 0.024 Uiso 1 1 calc R U
C3 C 0.423(5) 0.4454(9) 0.0659(19) 0.0158(19) Uani 1 1 d . .
H3A H 0.3285 0.4702 0.1126 0.024 Uiso 1 1 calc R U
H3B H 0.3495 0.4515 -0.0123 0.024 Uiso 1 1 calc R U
H3C H 0.6371 0.4507 0.0770 0.024 Uiso 1 1 calc R U
N2 N 0.702(4) 0.2931(7) 0.3244(16) 0.019(4) Uani 1 1 d . .
H2D H 0.8451 0.3113 0.2947 0.023 Uiso 1 1 calc R U
H2E H 0.6935 0.3039 0.3956 0.023 Uiso 1 1 calc R U
H2F H 0.5246 0.2991 0.2835 0.023 Uiso 1 1 calc R U
C4 C 0.771(5) 0.2352(9) 0.3235(19) 0.021(5) Uani 1 1 d . .
H4A H 0.8095 0.2248 0.2487 0.032 Uiso 1 1 calc R U
H4B H 0.6025 0.2153 0.3447 0.032 Uiso 1 1 calc R U
H4C H 0.9453 0.2280 0.3764 0.032 Uiso 1 1 calc R U
loop_
_atom_site_aniso_label
_atom_site_aniso_U_11
_atom_site_aniso_U_22
_atom_site_aniso_U_33
_atom_site_aniso_U_23
_atom_site_aniso_U_13
_atom_site_aniso_U_12
Pb1 0.0130(6) 0.0102(6) 0.0102(6) 0.0002(4) 0.0005(4) 0.0000(4)
I1 0.0140(8) 0.0092(8) 0.0092(7) -0.0005(5) 0.0004(5) 0.0005(5)
I2 0.0184(8) 0.0093(8) 0.0138(8) -0.0007(5) -0.0003(5) -0.0001(6)
I3 0.0134(8) 0.0186(9) 0.0092(8) -0.0003(5) 0.0010(5) 0.0004(6)
O1 0.013(4) 0.013(5) 0.021(5) 0.006(4) 0.001(3) 0.000(4)
N1 0.013(4) 0.013(5) 0.021(5) 0.006(4) 0.001(3) 0.000(4)
C1 0.013(4) 0.013(5) 0.021(5) 0.006(4) 0.001(3) 0.000(4)
C2 0.013(4) 0.013(5) 0.021(5) 0.006(4) 0.001(3) 0.000(4)
C3 0.013(4) 0.013(5) 0.021(5) 0.006(4) 0.001(3) 0.000(4)
N2 0.021(11) 0.015(11) 0.019(11) 0.007(8) 0.000(8) -0.008(8)
C4 0.027(14) 0.019(13) 0.016(12) -0.008(10) 0.000(10) 0.008(10)
loop_
_atom_type_symbol
_atom_type_description
_atom_type_scat_dispersion_real
_atom_type_scat_dispersion_imag
_atom_type_scat_source
C C 0.0070 0.0030 'International Tables Vol C Tables 4.2.6.8 and 6.1.1.4'
H H 0.0000 0.0000 'International Tables Vol C Tables 4.2.6.8 and 6.1.1.4'
N N 0.0130 0.0070 'International Tables Vol C Tables 4.2.6.8 and 6.1.1.4'
O O 0.0210 0.0120 'International Tables Vol C Tables 4.2.6.8 and 6.1.1.4'
I I -0.0340 3.1360 'International Tables Vol C Tables 4.2.6.8 and 6.1.1.4'
Pb Pb -9.9000 4.0740 'International Tables Vol C Tables 4.2.6.8 and 6.1.1.4'
loop_
_geom_angle_atom_site_label_1
_geom_angle_atom_site_label_2
_geom_angle_atom_site_label_3
_geom_angle
_geom_angle_site_symmetry_1
_geom_angle_site_symmetry_3
I2 Pb1 I3 92.89(4) . 1_455
I2 Pb1 I3 93.89(4) . .
I3 Pb1 I3 90.66(4) 1_455 .
I2 Pb1 I1 90.56(4) . 1_455
I3 Pb1 I1 90.88(4) 1_455 1_455
I3 Pb1 I1 175.21(5) . 1_455
I2 Pb1 I1 91.56(4) . .
I3 Pb1 I1 175.43(5) 1_455 .
I3 Pb1 I1 90.07(4) . .
I1 Pb1 I1 88.04(4) 1_455 .
Pb1 I1 Pb1 88.04(4) 1_655 .
Pb1 I3 Pb1 90.66(4) 1_655 .
C1 N1 C2 123.1(19) . .
C1 N1 C3 122(2) . .
C2 N1 C3 115.0(18) . .
O1 C1 N1 124(2) . .
O1 C1 H1 117.9 . .
N1 C1 H1 117.9 . .
N1 C2 H2A 109.5 . .
N1 C2 H2B 109.5 . .
H2A C2 H2B 109.5 . .
N1 C2 H2C 109.5 . .
H2A C2 H2C 109.5 . .
H2B C2 H2C 109.5 . .
N1 C3 H3A 109.5 . .
N1 C3 H3B 109.5 . .
H3A C3 H3B 109.5 . .
N1 C3 H3C 109.5 . .
H3A C3 H3C 109.5 . .
H3B C3 H3C 109.5 . .
C4 N2 H2D 109.5 . .
C4 N2 H2E 109.5 . .
H2D N2 H2E 109.5 . .
C4 N2 H2F 109.5 . .
H2D N2 H2F 109.5 . .
H2E N2 H2F 109.5 . .
N2 C4 H4A 109.5 . .
N2 C4 H4B 109.5 . .
H4A C4 H4B 109.5 . .
N2 C4 H4C 109.5 . .
H4A C4 H4C 109.5 . .
H4B C4 H4C 109.5 . .
loop_
_geom_bond_atom_site_label_1
_geom_bond_atom_site_label_2
_geom_bond_distance
_geom_bond_site_symmetry_2
Pb1 I2 3.0516(18) .
Pb1 I3 3.1961(18) 1_455
Pb1 I3 3.2225(19) .
Pb1 I1 3.2750(18) 1_455
Pb1 I1 3.2937(18) .
I1 Pb1 3.2750(18) 1_655
I3 Pb1 3.1961(18) 1_655
O1 C1 1.23(3) .
N1 C1 1.32(3) .
N1 C2 1.44(3) .
N1 C3 1.48(3) .
C1 H1 0.9500 .
C2 H2A 0.9800 .
C2 H2B 0.9800 .
C2 H2C 0.9800 .
C3 H3A 0.9800 .
C3 H3B 0.9800 .
C3 H3C 0.9800 .
N2 C4 1.51(3) .
N2 H2D 0.9100 .
N2 H2E 0.9100 .
N2 H2F 0.9100 .
C4 H4A 0.9800 .
C4 H4B 0.9800 .
C4 H4C 0.9800 .
loop_
_geom_hbond_atom_site_label_D
_geom_hbond_atom_site_label_H
_geom_hbond_atom_site_label_A
_geom_hbond_distance_DH
_geom_hbond_distance_HA
_geom_hbond_distance_DA
_geom_hbond_angle_DHA
_geom_hbond_site_symmetry_A
N2 H2D O1 0.91 1.92 2.81(2) 167.6 1_655
N2 H2F O1 0.91 2.03 2.91(2) 161.4 .
loop_
_geom_torsion_atom_site_label_1
_geom_torsion_atom_site_label_2
_geom_torsion_atom_site_label_3
_geom_torsion_atom_site_label_4
_geom_torsion
C2 N1 C1 O1 6(3)
C3 N1 C1 O1 -175(2)
