#------------------------------------------------------------------------------
#$Date: 2015-12-04 03:39:04 +0200 (Fri, 04 Dec 2015) $
#$Revision: 170697 $
#$URL: svn://www.crystallography.net/cod/cif/2/10/72/2107269.cif $
#------------------------------------------------------------------------------
#
# This file is available in the Crystallography Open Database (COD),
# http://www.crystallography.net/. The original data for this entry
# were provided by IUCr Journals, http://journals.iucr.org/.
#
# The file may be used within the scientific community so long as
# proper attribution is given to the journal article from which the
# data were obtained.
#
data_2107269
loop_
_publ_author_name
'Weber, Oliver J.'
'Marshall, Kayleigh L.'
'Dyson, Lewis M.'
'Weller, Mark T.'
_publ_section_title
;
 Structural diversity in hybrid organic--inorganic lead iodide materials
;
_journal_issue                   6
_journal_name_full               'Acta Crystallographica Section B'
_journal_page_first              668
_journal_page_last               678
_journal_paper_doi               10.1107/S2052520615019885
_journal_volume                  71
_journal_year                    2015
_chemical_formula_sum            'C7.47 H11.73 I3.2 N1.07 O1.07 Pb1.07 S1.07'
_chemical_formula_weight         794.79
_chemical_name_common            '1,2-bis(4-pyridyl)ethane lead iodide'
_chemical_name_systematic
;
 ?
;
_space_group_crystal_system      orthorhombic
_space_group_IT_number           61
_space_group_name_Hall           '-P 2ac 2ab'
_space_group_name_H-M_alt        'P b c a'
_symmetry_space_group_name_Hall  '-P 2ac 2ab'
_symmetry_space_group_name_H-M   'P b c a'
_atom_sites_solution_hydrogens   mixed
_audit_creation_method           SHELXL-2014
_cell_angle_alpha                90
_cell_angle_beta                 90
_cell_angle_gamma                90
_cell_formula_units_Z            15
_cell_length_a                   8.05190(10)
_cell_length_b                   23.4398(3)
_cell_length_c                   32.8901(5)
_cell_measurement_temperature    150(2)
_cell_volume                     6207.51(15)
_computing_structure_refinement  'SHELXL-2014 (Sheldrick, 2014)'
_diffrn_ambient_temperature      150(2)
_diffrn_measured_fraction_theta_full 0.996
_diffrn_measured_fraction_theta_max 0.825
_diffrn_measurement_device_type  'SuperNova, Dual, Cu at zero, EosS2'
_diffrn_radiation_type           MoK\a
_diffrn_radiation_wavelength     0.71073
_diffrn_reflns_av_R_equivalents  0.0332
_diffrn_reflns_limit_h_max       6
_diffrn_reflns_limit_h_min       -10
_diffrn_reflns_limit_k_max       18
_diffrn_reflns_limit_k_min       -31
_diffrn_reflns_limit_l_max       41
_diffrn_reflns_limit_l_min       -30
_diffrn_reflns_number            15898
_diffrn_reflns_theta_full        25.242
_diffrn_reflns_theta_max         29.465
_diffrn_reflns_theta_min         3.310
_exptl_absorpt_coefficient_mu    16.950
_exptl_absorpt_correction_T_max  1.00000
_exptl_absorpt_correction_T_min  0.44835
_exptl_absorpt_correction_type   multi-scan
_exptl_crystal_colour            brown
_exptl_crystal_density_diffrn    3.189
_exptl_crystal_description       needle
_exptl_crystal_F_000             5200
_exptl_crystal_size_max          0.5
_exptl_crystal_size_mid          0.2
_exptl_crystal_size_min          0.1
_refine_diff_density_max         1.091
_refine_diff_density_min         -1.330
_refine_ls_extinction_method     none
_refine_ls_goodness_of_fit_ref   1.051
_refine_ls_hydrogen_treatment    mixed
_refine_ls_matrix_type           full
_refine_ls_number_parameters     257
_refine_ls_number_reflns         7106
_refine_ls_number_restraints     0
_refine_ls_restrained_S_all      1.051
_refine_ls_R_factor_all          0.0454
_refine_ls_R_factor_gt           0.0332
_refine_ls_shift/su_max          0.002
_refine_ls_shift/su_mean         0.000
_refine_ls_structure_factor_coef Fsqd
_refine_ls_weighting_details
'w=1/[\s^2^(Fo^2^)+(0.0176P)^2^] where P=(Fo^2^+2Fc^2^)/3'
_refine_ls_weighting_scheme      calc
_refine_ls_wR_factor_gt          0.0602
_refine_ls_wR_factor_ref         0.0658
_reflns_number_gt                5859
_reflns_number_total             7106
_reflns_threshold_expression     'I > 2\s(I)'
_cod_data_source_file            ps5046sup1.cif
_cod_data_source_block           shelx4
_cod_original_formula_sum        'C7.47 H11.73 I3.20 N1.07 O1.07 Pb1.07 S1.07'
_cod_database_code               2107269
_shelx_space_group_comment
;
The symmetry employed for this shelxl refinement is uniquely defined
by the following loop, which should always be used as a source of
symmetry information in preference to the above space-group names.
They are only intended as comments.
;
_shelx_hkl_file
;
   0   0   6    4.46    0.89
   0   0   7    1.11    0.50
   0   0   8    2.97    0.75
   0   0   9   -0.20    0.41
   0   0  10   29.03    2.65
   0   0  11    2.23    1.23
   0   0  12 1648.56   31.56
   0   0  13   18.09    3.33
   0   0  14 7867.61  124.11
   0   0  15   22.73    3.26
   0   0  16  743.25   18.75
   0   0  17    4.85    1.77
   0   0  18  188.17    8.61
   0   0  19    3.12    1.51
   0   0  20   21.92    2.94
   0   0  21    0.74    1.07
   0   0  22   81.78    5.96
   0   0  23    0.44    1.14
   0   0  24   20.05    3.07
   0   0  25   13.74    3.17
   0   0  26 1460.02   33.71
   0   0  27   29.00    4.55
   0   0  28 1573.73   36.14
   0   0  29   24.92    4.02
   0   0  30   96.71    7.31
   0   0  31    4.20    1.76
   0  -1   6    0.64    0.34
   0   1   6    0.27    0.39
   0  -1   7    0.21    0.43
   0   1   7    0.30    0.33
   0  -1   8   -0.19    0.38
   0   1   8    0.39    0.43
   0   1   9    0.56    0.37
   0  -1   9    0.78    0.66
   0  -1  10    0.41    0.54
   0   1  10    0.74    0.65
   0   1  11   -0.08    0.46
   0  -1  11    0.68    0.80
   0  -1  12    0.70    0.84
   0   1  12   -0.41    0.73
   0  -1  13   -0.14    0.71
   0   1  13    0.40    0.64
   0   1  14    1.15    0.75
   0  -1  14    1.24    0.99
   0   1  15    0.76    1.07
   0  -1  15    0.52    1.06
   0   1  16    0.61    0.77
   0  -1  16    0.25    0.78
   0   1  17    0.49    0.61
   0  -1  17    0.73    1.04
   0   1  18    1.43    0.85
   0  -1  18    0.02    0.65
   0  -1  19    0.82    1.07
   0   1  19   -0.15    0.80
   0   1  20   -0.46    0.82
   0  -1  20    0.42    0.99
   0   1  21    0.77    0.71
   0  -1  21   -0.03    1.11
   0   1  22   -0.09    0.93
   0  -1  22    2.90    1.59
   0  -1  23    3.37    1.63
   0   1  23   -0.29    0.83
   0   1  24    0.21    0.81
   0  -1  24    0.16    0.75
   0  -1  25    2.64    1.84
   0   1  25    2.62    1.49
   0  -1  26    3.12    1.67
   0   1  26    1.09    1.40
   0  -1  27    3.29    1.81
   0   1  27    3.38    1.97
   0  -1  28    4.72    2.06
   0  -1  29    2.07    1.47
   0  -1  30    1.82    1.05
   0  -1  31   -0.14    0.94
   0  -1  32   -0.08    1.20
   0  -1  33   -1.21    1.49
   0  -2   5  234.44    5.58
   0  -2   6   52.62    2.49
   0  -2   7   54.89    2.77
   0   2   8  140.29    4.94
   0  -2   8  134.92    4.97
   0  -2   9  173.68    5.95
   0   2   9  158.58    5.72
   0   2  10  199.31    6.79
   0  -2  10  202.49    6.94
   0  -2  11  181.12    6.86
   0   2  11  181.50    6.69
   0   2  12  566.23   14.18
   0  -2  12  589.17   14.66
   0  -2  13 4339.68   68.89
   0   2  13 3918.54   67.58
   0  -2  14  568.78   15.58
   0   2  14  580.23   15.01
   0   2  15 2673.42   48.76
   0  -2  15 2845.25   49.93
   0   2  16  137.17    6.82
   0  -2  16  129.34    6.99
   0   2  17   13.01    2.19
   0  -2  17   14.35    2.52
   0   2  18  106.49    6.24
   0  -2  18  108.52    6.67
   0   2  19   84.11    5.62
   0  -2  19   86.81    5.94
   0   2  20   67.30    5.10
   0  -2  20   59.29    4.92
   0  -2  21   97.55    6.38
   0   2  21   90.54    6.19
   0   2  22  356.87   13.12
   0  -2  22  357.16   13.11
   0   2  23   32.56    3.85
   0  -2  23   32.54    3.89
   0  -2  24   49.40    4.96
   0  -2  25  521.53   17.33
   0  -2  26  177.13    9.56
   0  -2  27  996.11   26.30
   0  -2  28  255.97   11.80
   0  -2  29  302.76   13.15
   0  -2  30   50.53    5.26
   0  -2  31   49.40    5.34
   0  -2  32    0.99    1.38
   0  -2  33    0.25    1.02
   0  -2  34    8.70    2.42
   0  -2  35   15.24    3.13
   0  -3   4    0.50    0.31
   0  -3   5    0.31    0.33
   0  -3   6    0.54    0.40
   0  -3   7   -0.01    0.26
   0  -3   8   -0.60    0.40
   0  -3   9    0.00    0.33
   0  -3  10    0.83    0.62
   0  -3  11    0.36    0.43
   0  -3  12    0.99    0.72
   0  -3  13   -0.17    0.53
   0  -3  14    1.48    0.88
   0  -3  15    0.28    0.56
   0  -3  16    0.96    1.18
   0  -3  17   -0.12    0.68
   0  -3  18   -0.52    0.62
   0  -3  19    1.49    1.19
   0  -3  20   -0.78    1.02
   0  -3  21   -0.59    0.80
   0  -3  22    0.54    0.91
   0  -3  23   -0.30    0.97
   0  -3  24   -0.34    1.03
   0  -3  25    4.30    1.96
   0  -3  26   -0.69    0.94
   0  -3  27    2.98    1.87
   0  -3  28    3.51    1.78
   0  -3  29    1.60    1.59
   0  -3  30    0.99    1.40
   0  -3  31    0.88    1.12
   0  -3  32    0.43    1.20
   0  -3  33    0.02    1.13
   0  -3  34   -1.78    1.85
   0  -3  35    1.65    1.75
   0  -3  36    0.58    1.53
   0  -3  37    0.23    1.25
   0  -4   0 1012.42   16.93
   0  -4   1  202.98    4.76
   0  -4   2  225.29    5.17
   0  -4   3    6.83    0.78
   0  -4   4    3.87    0.62
   0  -4   5   37.77    1.98
   0  -4   6  310.56    7.27
   0  -4   7  128.39    4.30
   0  -4   8  631.52   12.98
   0  -4   9    4.57    0.94
   0  -4  10    3.73    0.89
   0  -4  11   60.88    3.49
   0  -4  12  825.50   17.88
   0  -4  13  489.87   12.86
   0  -4  14   94.65    5.16
   0  -4  15   86.01    5.08
   0  -4  16  121.98    6.36
   0  -4  17   62.20    4.71
   0  -4  18    3.36    1.29
   0  -4  19   93.41    6.10
   0  -4  20   57.90    5.04
   0  -4  21  211.01    9.94
   0  -4  22  157.48    8.62
   0  -4  23   89.62    6.57
   0  -4  24   66.99    5.72
   0  -4  25   22.05    3.41
   0  -4  26  259.78   11.84
   0  -4  27  390.72   15.04
   0  -4  28  142.19    8.84
   0  -4  29   48.07    5.26
   0  -4  30  205.25   10.98
   0  -4  31   91.25    7.27
   0  -4  32    7.69    2.46
   0  -4  33   21.22    3.83
   0  -4  34  221.95   12.01
   0  -4  35   72.71    6.89
   0  -4  36   26.65    4.40
   0  -4  37   80.10    7.47
   0  -4  38  177.79   11.26
   0  -4  39   67.98    7.01
   0  -5   0   -0.04    0.26
   0  -5   1    0.73    0.36
   0  -5  -1   -0.52    0.40
   0  -5   2    0.11    0.26
   0  -5   3   -0.28    0.27
   0  -5   4    0.55    0.33
   0  -5   5    0.80    0.49
   0  -5   6    0.00    0.28
   0  -5   7    0.04    0.45
   0  -5   8    0.75    0.56
   0  -5   9    0.40    0.56
   0   5 -10    1.55    0.62
   0  -5  10   -0.16    0.36
   0  -5  11   -0.02    0.39
   0   5 -11    0.28    0.42
   0   5 -12   -0.49    0.65
   0  -5  12    1.00    0.68
   0  -5  13    2.16    0.86
   0   5 -13   -0.02    0.56
   0  -5  14    1.90    0.93
   0   5 -14    1.37    0.86
   0   5 -15   -0.22    0.59
   0  -5  15   -0.48    0.71
   0  -5  16    0.28    0.69
   0  -5  17    0.79    0.96
   0  -5  18    0.00    0.72
   0  -5  19   -1.60    1.33
   0  -5  20   -1.41    1.30
   0  -5  21   -0.17    0.91
   0  -5  22    1.38    1.29
   0  -5  23   -0.98    0.92
   0  -5  24   -0.39    1.08
   0  -5  25    0.64    1.08
   0  -5  26    1.04    1.45
   0  -5  27   -0.99    1.12
   0  -5  28   -0.96    1.33
   0  -5  29    1.15    1.28
   0  -5  30   -0.08    1.17
   0  -5  31   -0.48    1.23
   0  -5  32    5.66    2.56
   0  -5  33    0.49    1.52
   0  -5  34   -0.88    1.28
   0  -5  35    1.27    1.48
   0  -5  36    1.68    1.69
   0  -5  37    0.51    1.91
   0  -5  38    4.55    2.46
   0  -5  39    6.83    2.77
   0  -5  40   -0.26    1.05
   0  -6   0  378.20    8.33
   0  -6   1  569.63   11.29
   0  -6  -1  585.00   11.58
   0  -6   2   60.71    2.65
   0   6  -3  523.64   10.95
   0  -6   3  538.56   10.86
   0   6  -4   14.92    1.37
   0  -6   4   15.34    1.50
   0   6  -5  663.53   13.69
   0  -6   5  696.44   13.43
   0  -6   6  207.65    5.90
   0   6  -6  200.47    6.12
   0   6  -7   28.43    2.13
   0  -6   7   28.96    2.08
   0   6  -8   37.85    2.56
   0  -6   8   37.56    2.46
   0  -6   9  616.54   13.43
   0   6  -9  618.71   13.75
   0   6 -10  214.90    7.19
   0  -6  10  217.18    6.91
   0  -6  11  517.27   12.48
   0   6 -11  524.00   12.95
   0  -6  12   26.29    2.38
   0   6 -12   24.88    2.51
   0   6 -13   29.62    2.85
   0  -6  13   29.93    2.68
   0  -6  14   87.91    4.79
   0   6 -14   96.12    5.36
   0   6 -15  459.88   13.60
   0  -6  15  451.77   12.71
   0  -6  16  132.70    6.44
   0  -6  17   51.67    4.14
   0  -6  18    5.66    1.58
   0  -6  19    3.98    1.35
   0  -6  20   79.66    5.70
   0  -6  21  239.56   10.61
   0  -6  22   16.18    2.84
   0  -6  23    0.21    1.30
   0  -6  24  398.90   15.00
   0  -6  25  306.94   13.23
   0  -6  26  139.13    8.61
   0  -6  27    9.80    2.36
   0  -6  28  101.59    7.61
   0  -6  29   78.81    6.76
   0  -6  30   88.44    7.22
   0  -6  31  241.60   12.28
   0  -6  32    6.58    2.69
   0  -6  33   24.22    4.05
   0  -6  34   41.00    5.31
   0  -6  35  316.46   14.90
   0  -6  36    5.49    2.63
   0  -6  37  143.49   10.00
   0  -6  38  148.58   10.32
   0  -6  39  116.45    9.25
   0  -6  40  102.06    8.78
   0  -6  41    2.53    1.70
   0  -7   0    5.35    0.87
   0  -7  -1    0.75    0.46
   0  -7   1   -0.20    0.27
   0   7  -1    0.29    0.29
   0   7  -2    0.18    0.33
   0  -7   2    0.32    0.37
   0   7  -3    0.00    0.28
   0  -7   3    0.47    0.45
   0   7  -4    0.54    0.48
   0  -7   4    0.65    0.46
   0   7  -5    0.46    0.42
   0  -7   5   -0.20    0.43
   0   7  -6   -0.23    0.40
   0  -7   6    0.37    0.35
   0  -7   7    1.05    0.58
   0   7  -7    0.63    0.39
   0  -7   8    0.80    0.57
   0   7  -8   -0.14    0.40
   0   7  -9    0.28    0.35
   0  -7   9    0.63    0.50
   0  -7  10    0.32    0.49
   0   7 -10    0.41    0.46
   0   7 -11   -0.26    0.39
   0  -7  11    0.35    0.55
   0  -7  12    0.51    0.65
   0   7 -12   -0.87    0.59
   0  -7  13    1.01    0.78
   0   7 -13    0.18    0.50
   0  -7  14    0.41    0.54
   0   7 -14    0.22    0.50
   0  -7  15    1.36    1.06
   0  -7  16    0.10    0.66
   0  -7  17    0.46    0.66
   0  -7  18    1.19    0.93
   0  -7  19   -0.82    1.32
   0  -7  20   -0.62    0.76
   0  -7  21   -0.23    1.14
   0  -7  22   -0.52    1.45
   0  -7  23    1.21    0.99
   0  -7  24   -1.44    1.31
   0  -7  25   -0.20    1.05
   0  -7  26   -0.25    1.27
   0  -7  27    0.13    1.02
   0  -7  28   -1.36    1.37
   0  -7  29   -0.83    1.24
   0  -7  30    0.30    0.98
   0  -7  31    1.84    1.71
   0  -7  32    2.12    1.69
   0  -7  33    1.91    1.74
   0  -7  34    0.75    1.26
   0  -7  35    2.44    1.78
   0  -7  36   -1.56    1.62
   0  -7  37    0.47    1.45
   0  -7  38    1.46    1.83
   0  -7  39    1.67    1.66
   0  -7  40    3.02    1.75
   0  -7  41   -0.30    1.51
   0  -8   0   57.92    2.93
   0  -8   1   13.41    1.37
   0  -8  -1   10.11    1.26
   0   8  -1   10.28    1.24
   0  -8   2    7.58    1.07
   0  -8  -2    7.62    1.15
   0   8  -2    7.90    1.13
   0  -8   3   23.67    1.87
   0   8  -3   21.97    1.85
   0  -8   4  157.41    5.25
   0   8  -4  159.47    5.49
   0  -8   5   69.65    3.35
   0   8  -5   60.67    3.30
   0   8  -6   50.41    3.08
   0  -8   6   49.03    2.85
   0   8  -7  218.39    7.17
   0  -8   7  230.88    6.93
   0  -8   8  186.04    6.25
   0   8  -8  185.33    6.56
   0   8  -9  167.95    6.33
   0  -8   9  163.18    5.98
   0   8 -10   26.21    2.44
   0  -8  10   25.64    2.29
   0   8 -11  593.48   14.59
   0  -8  11  580.31   13.75
   0   8 -12   63.73    4.10
   0  -8  12   61.33    3.75
   0   8 -13  256.96    9.07
   0  -8  13  246.65    8.30
   0   8 -14   31.94    3.10
   0  -8  14   32.87    2.92
   0  -8  15    7.80    1.49
   0  -8  16  197.86    7.95
   0  -8  17    1.03    0.96
   0  -8  18  115.59    6.28
   0  -8  19   37.92    3.76
   0  -8  20    1.70    1.19
   0  -8  21  561.86   16.97
   0  -8  22   46.13    4.50
   0  -8  23   75.72    5.89
   0  -8  24  127.10    8.05
   0  -8  25  578.45   19.07
   0  -8  26   71.46    6.22
   0  -8  27   31.17    4.21
   0  -8  28    4.12    1.69
   0  -8  29   27.43    4.16
   0  -8  30  233.10   12.21
   0  -8  31    4.76    2.18
   0  -8  32   32.26    4.53
   0  -8  33    2.36    1.42
   0  -8  34   13.65    2.97
   0  -8  35  127.24    9.44
   0  -8  36    0.64    1.23
   0  -8  37   25.61    4.38
   0  -8  38  116.63    9.20
   0  -8  39  227.94   13.13
   0  -8  40   51.29    6.29
   0  -9   0    0.53    0.52
   0  -9   1    0.24    0.48
   0   9  -1    1.90    0.57
   0  -9  -1    0.78    0.60
   0  -9   2    0.24    0.39
   0  -9  -2    0.27    0.44
   0   9  -2    0.11    0.32
   0   9  -3    0.07    0.40
   0  -9   3    0.81    0.61
   0  -9   4    0.05    0.51
   0   9  -4    0.77    0.61
   0  -9   5   -0.35    0.39
   0   9  -5   -0.11    0.35
   0  -9   6   -0.14    0.42
   0   9  -6    0.65    0.51
   0  -9   7   -0.45    0.42
   0   9  -7   -0.20    0.40
   0  -9   8    0.21    0.50
   0   9  -8   -0.08    0.45
   0  -9   9   -0.10    0.39
   0   9  -9    0.31    0.42
   0  -9  10    0.37    0.58
   0   9 -10    0.24    0.57
   0  -9  11    0.26    0.59
   0   9 -11   -0.05    0.42
   0  -9  12    1.22    0.88
   0   9 -12   -0.24    0.52
   0   9 -13    0.41    0.73
   0  -9  13    1.42    0.89
   0  -9  14    1.05    0.88
   0  -9  15    0.70    0.74
   0  -9  16    1.39    1.13
   0  -9  17    1.66    1.08
   0  -9  18   -0.15    0.67
   0  -9  19    0.38    0.90
   0  -9  20    0.70    0.79
   0  -9  21   -1.11    1.15
   0  -9  22   -1.34    1.33
   0  -9  23   -1.38    1.28
   0  -9  24   -0.59    0.88
   0  -9  25   -0.66    1.15
   0  -9  26   -1.36    1.42
   0  -9  27    0.76    1.26
   0  -9  28    0.43    1.10
   0  -9  29   -1.53    1.20
   0  -9  30   -2.28    1.81
   0  -9  31   -1.61    1.46
   0  -9  32   -0.92    1.68
   0  -9  33   -2.51    2.13
   0  -9  34   -0.16    1.32
   0  -9  35   -0.58    1.55
   0  -9  36    0.93    1.50
   0  -9  37   -0.18    1.23
   0  -9  38    1.52    1.93
   0  -9  39    6.24    2.77
   0  -9  40    4.35    2.59
   0 -10   0 1243.90   23.25
   0 -10  -1  413.23   10.44
   0 -10   1  407.60   10.19
   0 -10  -2 1111.77   21.21
   0 -10   2 1065.36   20.54
   0  10  -2 1039.82   20.77
   0  10  -3  509.41   12.24
   0 -10  -3  533.36   12.57
   0 -10   3  519.80   12.05
   0 -10   4    3.27    0.86
   0  10  -4    2.31    0.72
   0  10  -5   46.86    3.10
   0 -10   5   45.26    2.90
   0 -10   6   28.89    2.37
   0  10  -6   28.03    2.42
   0  10  -7   33.15    2.74
   0 -10   7   33.53    2.60
   0  10  -8  151.64    6.21
   0 -10   8  145.48    5.76
   0 -10   9    7.16    1.33
   0  10  -9    6.13    1.33
   0  10 -10  119.69    5.70
   0 -10  10  110.70    5.15
   0  10 -11   14.14    1.99
   0 -10  11   13.29    1.75
   0  10 -12  652.51   16.43
   0 -10  12  658.86   15.63
   0 -10  13  146.48    6.37
   0 -10  14  734.40   17.41
   0 -10  15   75.75    4.70
   0 -10  16  400.22   12.27
   0 -10  17  270.17    9.89
   0 -10  18   88.59    5.52
   0 -10  19  160.12    7.76
   0 -10  20   25.07    3.08
   0 -10  21   33.17    3.64
   0 -10  22  115.08    7.10
   0 -10  23    0.26    0.74
   0 -10  24  349.39   13.84
   0 -10  25  203.74   10.54
   0 -10  26  299.17   13.25
   0 -10  27   41.64    4.88
   0 -10  28   80.58    7.04
   0 -10  29   60.16    6.09
   0 -10  30   70.58    6.87
   0 -10  31   18.49    3.32
   0 -10  32    7.07    2.20
   0 -10  33   35.87    5.06
   0 -10  34   19.26    3.78
   0 -10  35    2.08    1.33
   0 -10  36    1.99    1.59
   0 -10  37    2.48    1.81
   0 -10  38  144.36   10.56
   0 -10  39   96.84    8.66
   0 -10  40   90.42    8.28
   0 -11   0    0.79    0.74
   0 -11   1    1.84    1.10
   0 -11  -1    1.33    0.59
   0  11  -2    0.72    0.61
   0 -11   2    0.72    0.81
   0 -11  -2   -0.54    0.70
   0 -11  -3   -1.22    0.79
   0 -11   3    0.23    0.56
   0  11  -3    0.69    0.62
   0 -11   4    0.26    0.54
   0  11  -4    0.28    0.37
   0 -11   5   -0.49    0.56
   0  11  -5    1.34    0.66
   0  11  -6   -0.24    0.39
   0 -11   6   -0.31    0.63
   0 -11   7   -0.90    0.77
   0  11  -7   -0.21    0.39
   0  11  -8   -0.61    0.66
   0 -11   8   -0.19    0.54
   0 -11   9   -0.12    0.65
   0  11  -9    0.34    0.48
   0  11 -10   -0.26    0.51
   0 -11  10    0.17    0.60
   0  11 -11   -0.21    0.58
   0 -11  11    0.97    0.70
   0 -11  12    1.01    0.85
   0 -11  13    0.38    0.60
   0 -11  14    4.07    1.44
   0 -11  15    1.28    1.22
   0 -11  16    0.21    0.84
   0 -11  17   -0.24    0.69
   0 -11  18    0.32    0.61
   0 -11  19    1.06    0.97
   0 -11  20    0.47    0.87
   0 -11  21    1.55    1.09
   0 -11  22    0.47    1.25
   0 -11  23   -0.19    0.72
   0 -11  24    1.30    1.42
   0 -11  25   -1.44    1.53
   0 -11  26    1.57    1.19
   0 -11  27    1.13    1.47
   0 -11  28    0.59    1.10
   0 -11  29    1.56    1.56
   0 -11  30    0.89    1.09
   0 -11  31    1.79    1.69
   0 -11  32   -0.81    1.54
   0 -11  33   -0.92    1.52
   0 -11  34    0.69    1.52
   0 -11  35   -1.29    1.91
   0 -11  36    0.69    1.60
   0 -11  37    0.54    1.32
   0 -11  38    2.66    1.86
   0 -11  39    1.98    2.03
   0 -11  40    3.67    2.06
   0 -12   0  530.03   13.05
   0 -12  -1 3707.43   61.15
   0 -12   1 3741.14   60.91
   0 -12   2  430.53   11.29
   0  12  -2  425.71   11.50
   0 -12  -2  445.13   11.77
   0 -12   3  233.98    7.76
   0 -12  -3  236.17    8.10
   0  12  -3  242.03    8.06
   0 -12  -4  212.52    7.69
   0 -12   4  204.88    7.20
   0  12  -4  208.88    7.47
   0 -12   5  138.09    5.78
   0  12  -5  141.75    6.05
   0 -12   6  157.09    6.19
   0  12  -6  147.12    6.30
   0 -12   7   32.36    2.79
   0  12  -7   30.84    2.88
   0 -12   8   26.21    2.47
   0  12  -8   26.73    2.72
   0 -12   9  306.21    9.53
   0  12  -9  300.10    9.99
   0 -12  10   25.79    2.50
   0  12 -10   27.32    2.85
   0 -12  11  391.60   11.39
   0 -12  12   89.13    5.03
   0 -12  13 3423.13   58.34
   0 -12  14  147.94    6.84
   0 -12  15 1514.33   30.47
   0 -12  16  387.05   12.27
   0 -12  17  140.26    7.03
   0 -12  18   76.57    5.18
   0 -12  19    9.27    1.88
   0 -12  20   14.54    2.37
   0 -12  21   32.67    3.62
   0 -12  22   16.10    2.64
   0 -12  23    2.95    1.40
   0 -12  24   -0.03    1.05
   0 -12  25   96.60    7.14
   0 -12  26   24.47    3.80
   0 -12  27 1148.27   30.43
   0 -12  28   18.11    3.91
   0 -12  29  539.06   19.80
   0 -12  30  198.21   11.75
   0 -12  31   12.29    2.80
   0 -12  32    0.62    1.65
   0 -12  33    4.86    1.86
   0 -12  34    0.37    1.66
   0 -12  35    2.22    1.62
   0 -12  36   16.14    3.50
   0 -12  37   42.64    5.66
   0 -12  38    1.09    1.58
   0 -12  39   68.11    7.48
   0 -13   0    3.79    1.30
   0 -13  -1    1.12    0.91
   0 -13   1    3.07    1.25
   0 -13   2    0.92    0.81
   0 -13  -2    0.81    0.61
   0  13  -3   -0.10    0.46
   0 -13  -3    0.33    0.59
   0 -13   3    0.75    0.70
   0  13  -4   -0.45    0.46
   0 -13   4    0.23    0.49
   0 -13  -4    0.82    0.50
   0 -13  -5   -0.70    0.76
   0 -13   5   -0.62    0.57
   0  13  -5   -0.51    0.66
   0  13  -6    0.14    0.50
   0 -13   6    0.37    0.60
   0  13  -7   -0.27    0.51
   0 -13   7   -0.59    0.50
   0 -13   8   -0.57    0.72
   0  13  -8    0.34    0.65
   0  13  -9   -0.23    0.66
   0 -13   9   -0.20    0.73
   0 -13  10    0.86    0.70
   0 -13  11    0.31    0.56
   0 -13  12    2.05    0.97
   0 -13  13    2.25    1.23
   0 -13  14    4.54    1.53
   0 -13  15    0.38    1.19
   0 -13  16    1.05    0.96
   0 -13  17    1.48    1.19
   0 -13  18   -0.40    0.69
   0 -13  19    0.76    1.09
   0 -13  20   -0.11    0.85
   0 -13  21    1.48    1.14
   0 -13  22    0.91    0.94
   0 -13  23    0.63    0.84
   0 -13  24    0.43    0.83
   0 -13  25   -0.54    0.89
   0 -13  26   -1.55    1.43
   0 -13  27    4.10    2.18
   0 -13  28    0.91    1.10
   0 -13  29    0.15    1.57
   0 -13  30    0.89    1.47
   0 -13  31   -0.67    1.44
   0 -13  32   -1.29    2.00
   0 -13  33   -2.05    2.00
   0 -13  34    0.76    1.27
   0 -13  35   -1.18    1.68
   0 -13  36   -0.41    1.38
   0 -13  37   -0.37    1.61
   0 -13  38    0.38    1.34
   0 -13  39    0.55    1.84
   0 -14   0 3544.89   59.56
   0 -14  -1  338.97   10.47
   0 -14   1  339.54   10.33
   0 -14   2 1149.11   23.90
   0 -14  -2 1210.45   24.50
   0 -14  -3  100.41    5.32
   0 -14   3   82.87    4.68
   0  14  -3   99.24    5.28
   0 -14   4   19.05    2.14
   0 -14  -4   18.13    2.22
   0  14  -4   19.47    2.32
   0 -14  -5   27.62    2.81
   0 -14   5   24.08    2.46
   0  14  -5   23.00    2.54
   0 -14  -6  185.20    7.69
   0  14  -6  173.20    7.42
   0 -14   6  178.95    7.11
   0 -14   7   12.10    1.85
   0  14  -7   13.80    2.01
   0 -14   8   53.30    3.76
   0 -14   9  124.69    6.01
   0 -14  10  265.43    9.27
   0 -14  11   40.98    3.46
   0 -14  12 1789.80   34.51
   0 -14  13  122.21    6.30
   0 -14  14 2913.97   51.79
   0 -14  15  401.79   12.64
   0 -14  16   84.92    5.42
   0 -14  17  139.38    7.23
   0 -14  18   10.89    2.16
   0 -14  19   25.83    3.20
   0 -14  20   -0.47    0.93
   0 -14  21   91.10    6.32
   0 -14  22    6.19    1.89
   0 -14  23   51.36    5.01
   0 -14  24   38.77    4.35
   0 -14  25   15.37    2.96
   0 -14  26  675.76   21.43
   0 -14  27   25.03    4.04
   0 -14  28  767.45   24.11
   0 -14  29  186.73   11.11
   0 -14  30    1.49    1.47
   0 -14  31   42.71    5.55
   0 -14  32   10.27    2.76
   0 -14  33   15.91    3.34
   0 -14  34   14.03    3.39
   0 -14  35  108.49    9.34
   0 -14  36    9.14    2.89
   0 -14  37    8.58    2.84
   0 -14  38    8.88    2.71
   0 -14  39    1.85    1.73
   0 -15   0    5.57    1.63
   0 -15   1    2.34    1.03
   0 -15  -1    3.14    1.12
   0 -15   2    0.33    0.55
   0 -15  -2   -0.03    0.70
   0 -15   3   -0.18    0.60
   0 -15  -3    0.68    0.75
   0 -15  -4   -0.56    0.90
   0 -15   4   -0.59    0.65
   0 -15   5    0.32    0.78
   0 -15  -5   -0.55    0.59
   0 -15   6    1.08    0.72
   0 -15  -6   -0.21    0.59
   0 -15  -7   -0.48    0.75
   0 -15   7    0.22    0.55
   0 -15   8   -0.72    0.85
   0 -15   9   -2.12    1.28
   0 -15  10   -1.49    1.10
   0 -15  11   -1.37    1.14
   0 -15  12   -0.50    0.92
   0 -15  13    0.67    0.92
   0 -15  14    1.70    1.11
   0 -15  15    0.93    1.09
   0 -15  16    1.42    1.17
   0 -15  17    2.41    1.28
   0 -15  18    0.38    0.68
   0 -15  19    0.66    0.95
   0 -15  20    0.26    0.79
   0 -15  21    0.38    0.87
   0 -15  22   -0.49    1.03
   0 -15  23    0.35    0.83
   0 -15  24    1.51    1.03
   0 -15  25   -1.99    1.36
   0 -15  26    0.03    1.18
   0 -15  27    0.98    1.07
   0 -15  28   -1.38    1.42
   0 -15  29   -2.41    2.15
   0 -15  30   -1.19    1.75
   0 -15  31   -2.54    2.12
   0 -15  32   -1.31    1.70
   0 -15  33   -1.80    1.57
   0 -15  34   -1.06    1.28
   0 -15  35   -0.60    1.47
   0 -15  36   -0.23    1.35
   0 -15  37   -0.28    1.61
   0 -15  38    0.58    1.86
   0 -16   0  519.97   14.25
   0 -16   1  684.02   16.96
   0 -16  -1  675.68   17.09
   0 -16   2   40.60    3.44
   0 -16  -2   42.80    3.59
   0 -16   3   40.22    3.41
   0 -16  -3   45.00    3.72
   0 -16   4   10.14    1.80
   0 -16  -4    9.00    1.71
   0 -16  -5   21.40    2.64
   0 -16   5   22.13    2.50
   0 -16   6  172.49    7.41
   0 -16  -6  187.52    8.11
   0 -16  -7   16.65    2.38
   0 -16   7   17.73    2.30
   0 -16   8  290.48   10.14
   0 -16  -8  284.73   10.59
   0 -16   9   83.64    5.12
   0 -16  10  178.08    7.77
   0 -16  11    9.25    1.76
   0 -16  12    9.16    1.88
   0 -16  13  742.74   18.91
   0 -16  14  128.70    6.84
   0 -16  15   82.58    5.44
   0 -16  16  194.04    8.73
   0 -16  17   35.38    3.71
   0 -16  18    9.62    2.07
   0 -16  19    5.47    1.70
   0 -16  20   22.11    3.16
   0 -16  21   30.73    3.77
   0 -16  22  103.10    6.99
   0 -16  23   53.07    5.05
   0 -16  24   97.33    7.07
   0 -16  25   51.12    5.29
   0 -16  26   60.75    5.96
   0 -16  27  310.89   14.14
   0 -16  28   14.94    2.96
   0 -16  29   -0.71    1.98
   0 -16  30   73.19    7.08
   0 -16  31   11.87    2.63
   0 -16  32    0.28    1.61
   0 -16  33   28.57    4.86
   0 -16  34  107.74    9.35
   0 -16  35   21.62    4.35
   0 -16  36   46.40    6.03
   0 -16  37    1.97    1.61
   0 -16  38    3.39    1.56
   0 -17   0    1.80    1.15
   0 -17  -1    1.76    1.02
   0 -17   1    1.47    0.90
   0 -17   2    0.05    0.59
   0 -17  -2    0.96    0.83
   0 -17   3    0.63    0.88
   0 -17  -3    0.56    0.76
   0 -17   4    0.59    0.76
   0 -17  -4    1.97    1.10
   0 -17   5   -0.12    0.74
   0 -17  -5   -0.21    0.68
   0 -17   6   -0.09    0.63
   0 -17  -6    1.04    0.99
   0 -17   7    0.92    0.58
   0 -17  -7    0.31    0.65
   0 -17   8   -1.51    1.09
   0 -17  -8    0.03    0.65
   0 -17   9   -0.28    0.59
   0 -17  -9    0.13    0.68
   0 -17  10   -0.80    0.85
   0 -17  11    0.28    0.68
   0 -17  12    2.08    1.00
   0 -17  13    0.20    0.80
   0 -17  14    2.02    1.04
   0 -17  15   -0.04    0.76
   0 -17  16    0.55    0.71
   0 -17  17    1.59    1.14
   0 -17  18    0.65    0.80
   0 -17  19    0.53    0.69
   0 -17  20    0.88    1.13
   0 -17  21   -0.68    0.89
   0 -17  22    1.79    1.31
   0 -17  23   -0.17    0.92
   0 -17  24    0.94    1.27
   0 -17  25   -0.65    1.27
   0 -17  26    0.40    1.24
   0 -17  27   -2.80    1.94
   0 -17  28   -1.89    1.92
   0 -17  29   -3.39    2.31
   0 -17  30   -1.68    1.78
   0 -17  31   -0.79    1.37
   0 -17  32   -3.06    2.32
   0 -17  33   -2.69    2.44
   0 -17  34   -0.27    1.55
   0 -17  35   -2.23    1.79
   0 -17  36    0.22    1.26
   0 -17  37    1.34    1.28
   0 -18   0   31.59    3.22
   0 -18  -1   31.96    3.27
   0 -18   1   28.79    3.07
   0 -18   2   22.53    2.67
   0 -18  -2   27.53    3.01
   0 -18   3   35.18    3.39
   0 -18  -3   33.55    3.39
   0 -18   4  230.51    9.11
   0 -18  -4  246.26    9.80
   0 -18  -5  505.33   15.05
   0 -18   5  480.57   14.12
   0 -18  -6    9.97    1.90
   0 -18   6    9.21    1.81
   0 -18  -7    7.25    1.86
   0 -18   7    6.77    1.60
   0 -18   8  113.94    6.30
   0 -18  -8  110.35    6.61
   0 -18   9  439.55   13.49
   0 -18  -9  420.19   14.00
   0 -18  10    2.53    1.27
   0 -18 -10    4.05    1.50
   0 -18  11    2.71    1.31
   0 -18  12    2.66    0.88
   0 -18  13    2.33    0.96
   0 -18  14    7.53    1.72
   0 -18  15   18.61    2.65
   0 -18  16   18.27    2.62
   0 -18  17   14.75    2.56
   0 -18  18  218.51    9.95
   0 -18  19  109.43    7.05
   0 -18  20   44.39    4.53
   0 -18  21   29.23    3.78
   0 -18  22  286.43   12.36
   0 -18  23  139.55    8.52
   0 -18  24   33.71    4.28
   0 -18  25   59.26    5.79
   0 -18  26   76.34    6.73
   0 -18  27   10.82    2.59
   0 -18  28   44.26    5.29
   0 -18  29   24.05    3.87
   0 -18  30   21.42    3.79
   0 -18  31   -1.43    2.32
   0 -18  32    6.52    2.29
   0 -18  33    2.39    1.45
   0 -18  34   36.26    5.57
   0 -18  35   29.78    5.18
   0 -18  36   54.92    6.94
   0 -18  37    5.79    2.35
   0 -19   0    1.24    0.93
   0 -19  -1    0.75    0.85
   0 -19   1    0.75    1.11
   0 -19   2    0.57    0.74
   0 -19  -2   -1.42    1.20
   0 -19   3   -0.41    0.84
   0 -19  -3    0.53    1.01
   0 -19  -4    0.36    1.03
   0 -19   4    1.46    1.15
   0 -19   5    2.67    1.33
   0 -19  -5   -0.76    1.01
   0 -19  -6    0.43    0.72
   0 -19   6    2.06    1.22
   0 -19  -7    0.57    1.09
   0 -19   7   -0.86    0.83
   0 -19   8    0.31    0.84
   0 -19  -8    0.72    1.08
   0 -19   9    0.16    1.03
   0 -19  -9   -0.50    0.94
   0 -19  10    0.70    1.09
   0 -19 -10    0.91    0.96
   0 -19  11    2.23    1.11
   0 -19 -11   -0.94    1.13
   0 -19  12   -1.00    1.04
   0 -19  13   -0.15    0.66
   0 -19  14    0.37    0.98
   0 -19  15    0.54    0.84
   0 -19  16   -1.17    0.89
   0 -19  17   -0.20    0.79
   0 -19  18    1.83    1.17
   0 -19  19   -0.86    0.94
   0 -19  20    1.52    1.32
   0 -19  21    2.13    1.51
   0 -19  22    0.92    1.38
   0 -19  23    2.23    1.51
   0 -19  24    1.98    1.39
   0 -19  25    0.30    1.01
   0 -19  26    0.64    1.01
   0 -19  27   -2.05    1.74
   0 -19  28   -1.18    1.87
   0 -19  29   -0.12    1.47
   0 -19  30   -2.27    2.13
   0 -19  31   -0.98    1.54
   0 -19  32   -1.02    1.54
   0 -19  33   -3.41    2.35
   0 -19  34   -0.54    1.69
   0 -19  35    0.13    1.63
   0 -19  36   -0.63    1.73
   0 -20   0  279.88   10.81
   0 -20   1   14.59    2.16
   0 -20  -1   19.36    2.65
   0 -20   2    0.62    1.08
   0 -20  -2    1.29    0.87
   0 -20   3  112.19    6.50
   0 -20  -3  100.19    6.36
   0 -20   4  172.23    8.18
   0 -20  -4  192.41    8.99
   0 -20  -5  245.06   10.32
   0 -20   5  240.06    9.82
   0 -20  -6   36.07    3.95
   0 -20   6   27.59    3.32
   0 -20   7   84.73    5.60
   0 -20  -7   88.69    6.12
   0 -20  -8   56.36    4.94
   0 -20   8   58.79    4.75
   0 -20  -9   77.73    5.80
   0 -20   9   78.09    5.47
   0 -20  10   90.72    5.93
   0 -20 -10   97.74    6.57
   0 -20  11    4.62    1.40
   0 -20 -11    4.42    1.51
   0 -20 -12   25.82    3.54
   0 -20  12   21.30    3.01
   0 -20  13   10.46    2.25
   0 -20  14  277.12   11.29
   0 -20  15    2.72    1.39
   0 -20  16   77.27    5.81
   0 -20  17  166.93    8.79
   0 -20  18   87.66    6.36
   0 -20  19  157.91    8.81
   0 -20  20   66.27    5.71
   0 -20  21  203.55   10.44
   0 -20  22   57.14    5.47
   0 -20  23   11.54    2.70
   0 -20  24   60.65    5.79
   0 -20  25   90.30    7.33
   0 -20  26   10.76    2.80
   0 -20  27    7.68    2.45
   0 -20  28   29.44    4.46
   0 -20  29   22.35    4.13
   0 -20  30   43.98    5.65
   0 -20  31   66.01    7.08
   0 -20  32   -3.87    2.60
   0 -20  33    6.89    2.19
   0 -20  34   16.18    3.72
   0 -20  35   46.26    6.43
   0 -21   0   -0.79    1.19
   0 -21   1    1.74    1.17
   0 -21  -1   -1.32    1.20
   0 -21  -2    0.53    0.83
   0 -21   2    0.19    0.86
   0 -21   3    1.08    0.98
   0 -21  -3    0.10    0.81
   0 -21   4    1.97    1.35
   0 -21  -4   -1.40    1.13
   0 -21  -5   -1.32    0.97
   0 -21   5    0.77    1.12
   0 -21   6    0.92    1.04
   0 -21  -6    1.29    1.03
   0 -21   7    2.50    1.42
   0 -21  -7    0.75    0.86
   0 -21   8    1.68    1.35
   0 -21  -8    0.88    0.79
   0 -21   9    0.91    1.05
   0 -21  -9    1.37    1.11
   0 -21  10   -0.10    0.80
   0 -21 -10   -0.75    1.03
   0 -21  11    0.24    0.92
   0 -21 -11    1.43    1.14
   0 -21  12    0.29    0.83
   0 -21 -12   -0.48    1.09
   0 -21 -13    0.77    1.20
   0 -21  13    0.34    0.72
   0 -21 -14   -0.43    1.05
   0 -21  14    0.28    0.87
   0 -21  15    1.98    1.19
   0 -21  16    0.81    1.52
   0 -21  17    0.57    1.13
   0 -21  18    2.62    1.56
   0 -21  19    0.33    0.86
   0 -21  20    1.51    1.24
   0 -21  21    0.09    1.11
   0 -21  22    1.27    1.31
   0 -21  23   -1.24    1.02
   0 -21  24    1.88    1.76
   0 -21  25    0.85    1.13
   0 -21  26    1.60    1.51
   0 -21  27    0.61    1.01
   0 -21  28    1.49    1.12
   0 -21  29   -1.02    1.49
   0 -21  30    1.51    1.34
   0 -21  31   -0.11    1.49
   0 -21  32    0.04    1.65
   0 -21  33    1.23    1.37
   0 -21  34   -0.75    2.05
   0 -22   0    1.91    1.03
   0 -22   1   29.12    3.47
   0 -22  -1   41.06    4.14
   0 -22  -2    4.38    1.42
   0 -22   2    3.04    1.27
   0 -22  -3  200.43    9.57
   0 -22   3  214.42    9.65
   0 -22   4  174.91    8.67
   0 -22  -4  166.18    8.78
   0 -22  -5    9.74    2.29
   0 -22   5    9.23    2.11
   0 -22   6  102.47    6.52
   0 -22  -6   99.08    6.71
   0 -22  -7    4.70    1.72
   0 -22   7    8.60    2.07
   0 -22  -8  118.78    7.48
   0 -22   8  126.88    7.32
   0 -22   9    2.06    1.15
   0 -22  -9    1.47    0.91
   0 -22 -10   51.04    4.97
   0 -22  10   44.49    4.30
   0 -22 -11  183.43    9.60
   0 -22  11  171.04    8.78
   0 -22 -12   44.30    4.78
   0 -22  12   47.64    4.57
   0 -22  13   36.19    3.98
   0 -22 -13   34.20    4.08
   0 -22 -14    6.84    2.18
   0 -22  14    9.82    2.16
   0 -22 -15    0.93    1.08
   0 -22  15    1.89    1.06
   0 -22  16   40.19    4.30
   0 -22  17   52.58    5.09
   0 -22  18  191.53    9.92
   0 -22  19   52.80    5.20
   0 -22  20    4.39    1.76
   0 -22  21    3.76    1.71
   0 -22  22   39.25    4.70
   0 -22  23   37.86    4.63
   0 -22  24    2.30    1.45
   0 -22  25   33.94    4.51
   0 -22  26   26.49    4.20
   0 -22  27   23.20    4.11
   0 -22  28   -1.63    1.35
   0 -22  29    6.40    2.42
   0 -22  30   43.25    5.66
   0 -22  31   -1.18    1.68
   0 -23   0    0.37    0.89
   0 -23  -1   -0.93    0.94
   0 -23   1   -0.96    1.24
   0 -23  -2    1.66    1.32
   0 -23   2   -0.60    1.13
   0 -23  -3   -0.75    1.05
   0 -23   3    0.85    0.98
   0 -23  -4   -0.72    0.94
   0 -23   4    0.96    1.22
   0 -23   5    1.14    1.10
   0 -23  -5    1.05    1.08
   0 -23  -6   -0.57    0.96
   0 -23   6    0.56    0.86
   0 -23  -7    0.99    0.98
   0 -23   7    0.74    1.25
   0 -23  -8    0.47    1.31
   0 -23   8   -0.10    0.77
   0 -23  -9    0.53    0.98
   0 -23   9    1.28    1.27
   0 -23  10    0.32    0.95
   0 -23 -10    1.40    1.36
   0 -23 -11   -0.03    0.84
   0 -23  11   -0.74    0.93
   0 -23 -12   -1.14    0.95
   0 -23  12    2.40    1.63
   0 -23 -13    0.14    0.95
   0 -23  13    2.67    1.33
   0 -23  14    0.53    1.17
   0 -23 -14    2.51    1.68
   0 -23  15    0.54    1.27
   0 -23 -15    1.00    1.53
   0 -23 -16    1.80    1.38
   0 -23  16    0.00    1.39
   0 -23 -17    0.54    1.28
   0 -23  17   -2.03    1.36
   0 -23  18    1.77    1.32
   0 -23  19    1.30    1.34
   0 -23  20    0.68    1.37
   0 -23  21   -0.73    1.51
   0 -23  22    2.14    1.65
   0 -23  23   -0.30    1.18
   0 -23  24    1.33    1.41
   0 -23  25    0.15    0.98
   0 -23  26   -0.86    1.42
   0 -23  27    1.47    1.47
   0 -24   0  421.09   15.02
   0 -24   1    8.30    2.13
   0 -24  -1   13.60    2.54
   0 -24   2  502.98   16.52
   0 -24  -2  512.71   16.93
   0 -24  -3   60.44    5.40
   0 -24   3   59.17    5.08
   0 -24  -4   10.04    2.24
   0 -24   4   11.26    2.06
   0 -24   5   97.38    6.66
   0 -24  -5  110.24    7.35
   0 -24   6   17.40    2.82
   0 -24  -6   29.11    3.85
   0 -24  -7    1.88    1.07
   0 -24   7    0.66    1.12
   0 -24  -8   11.01    2.49
   0 -24   8   13.19    2.56
   0 -24   9  164.68    8.82
   0 -24  -9  159.36    9.16
   0 -24  10   44.09    4.59
   0 -24 -10   49.38    5.04
   0 -24  11    5.23    1.81
   0 -24 -11    8.82    2.56
   0 -24  12  275.31   11.86
   0 -24 -12  261.72   12.25
   0 -24  13   48.91    4.85
   0 -24 -13   51.23    5.35
   0 -24  14  164.17    9.13
   0 -24 -14  152.72    9.38
   0 -24 -15  106.47    7.86
   0 -24  15  101.66    7.17
   0 -24  16  273.51   12.14
   0 -24 -16  262.90   12.82
   0 -24  17  182.16    9.86
   0 -24 -17  178.70   10.58
   0 -24  18    3.80    1.90
   0 -24 -18    0.13    1.20
   0 -24 -19    2.84    1.54
   0 -24  19    2.47    1.20
   0 -24  20   10.11    2.52
   0 -24  21    2.95    1.66
   0 -24  22    0.19    1.13
   0 -24  23   15.43    3.05
   0 -24  24   52.49    5.69
   0 -25   0    1.40    1.34
   0 -25  -1    1.79    1.45
   0 -25   1    2.42    1.34
   0 -25   2    0.08    0.93
   0 -25  -2    3.00    1.65
   0 -25   3    0.40    1.12
   0 -25  -3   -0.17    0.90
   0 -25  -4   -0.55    1.31
   0 -25   4    1.73    1.36
   0 -25  -5    0.96    1.11
   0 -25   5    1.35    0.86
   0 -25   6   -0.90    1.78
   0 -25  -6   -0.61    1.36
   0 -25  -7   -1.43    1.21
   0 -25   7   -1.31    1.44
   0 -25   8   -1.14    1.53
   0 -25  -8    1.83    1.54
   0 -25  -9   -0.46    0.87
   0 -25   9   -0.57    1.11
   0 -25  10    0.24    0.90
   0 -25 -10    0.61    1.26
   0 -25 -11    1.87    1.44
   0 -25  11   -0.75    1.40
   0 -25 -12    1.17    1.42
   0 -25  12   -1.94    1.27
   0 -25 -13   -0.02    1.31
   0 -25  13    0.24    1.52
   0 -25  14    1.59    1.53
   0 -25 -14    2.44    1.68
   0 -25 -15    1.23    1.62
   0 -25  15    3.71    1.88
   0 -25 -16   -1.25    1.39
   0 -25  16    0.67    1.72
   0 -25  17   -0.66    0.92
   0 -25 -17    1.02    0.97
   0 -25  18    2.56    1.57
   0 -25 -18    1.20    1.36
   0 -25 -19    0.56    1.24
   0 -25  19   -0.11    1.02
   0 -25 -20   -1.35    1.47
   0 -25 -21   -1.15    2.10
   0 -26   0   70.86    6.03
   0 -26   1  491.98   16.93
   0 -26  -1  490.62   17.02
   0 -26   2  111.83    7.50
   0 -26  -2  111.54    7.68
   0 -26   3   10.43    2.16
   0 -26  -3    8.82    2.13
   0 -26   4   54.19    5.12
   0 -26  -4   55.91    5.32
   0 -26   5   -1.43    1.60
   0 -26  -5    0.29    0.89
   0 -26  -6   -0.69    1.39
   0 -26   6   -1.33    1.28
   0 -26   7    2.45    1.10
   0 -26  -7    4.46    1.48
   0 -26  -8   17.23    3.15
   0 -26   8   12.60    2.48
   0 -26   9    2.50    1.15
   0 -26  -9    1.31    1.32
   0 -26 -10   82.21    6.69
   0 -26  10   78.83    6.28
   0 -26 -11   30.42    4.16
   0 -26  11   30.74    3.90
   0 -26 -12   10.44    2.70
   0 -26  12   11.02    2.75
   0 -26  13  311.22   13.19
   0 -26 -13  281.88   13.40
   0 -26  14   83.28    6.92
   0 -26 -14   71.45    6.73
   0 -26 -15  481.07   18.26
   0 -26 -16  291.75   13.92
   0 -26 -17   22.86    4.05
   0 -26 -18   19.75    3.73
   0 -26 -19    6.80    2.13
   0 -26 -20   29.35    4.55
   0 -26 -21   -0.39    1.57
   0 -26 -22   24.23    4.23
   0 -26 -23   -1.09    1.62
   0 -27   0    1.73    1.60
   0 -27   1    6.34    2.06
   0 -27  -1    4.40    1.97
   0 -27   2    1.29    1.05
   0 -27  -2    0.27    0.89
   0 -27   3    0.64    1.16
   0 -27  -3    2.24    1.76
   0 -27   4   -0.32    1.08
   0 -27  -4   -0.97    1.40
   0 -27   5   -1.64    1.42
   0 -27  -5   -1.00    1.12
   0 -27  -6   -1.54    1.64
   0 -27   6   -1.42    1.73
   0 -27   7   -1.52    1.85
   0 -27  -7   -1.01    1.34
   0 -27   8   -1.27    1.57
   0 -27  -8    0.58    0.89
   0 -27  -9    0.61    1.29
   0 -27 -10    1.06    1.66
   0 -27 -11    0.41    1.12
   0 -27 -12   -1.71    1.71
   0 -27 -13    1.13    1.22
   0 -27 -14    0.38    1.16
   0 -27 -15   -2.00    1.10
   0 -27 -16    0.62    1.31
   0 -27 -17    1.13    1.41
   0 -27 -18   -0.80    1.24
   0 -27 -19    4.64    2.13
   0 -27 -20   -1.49    1.65
   0 -27 -21   -2.53    1.86
   0 -27 -22   -0.98    1.78
   0 -27 -23   -0.60    1.69
   0 -27 -24   -1.27    1.66
   0 -28  -2   24.86    3.71
   0 -28  -3  169.70    9.91
   0 -28  -4   22.07    3.51
   0 -28  -5    0.38    1.02
   0 -28  -6    5.40    1.63
   0 -28  -7   20.79    3.42
   0 -28  -8   -0.28    1.33
   0 -28  -9   24.51    3.81
   0 -28 -10   -0.59    1.54
   0 -28 -11   48.21    5.43
   0 -28 -12   21.76    3.88
   0 -28 -13   27.94    4.30
   0 -28 -14  107.38    8.25
   0 -28 -15   54.03    5.88
   0 -28 -16   14.32    3.22
   0 -28 -17   76.02    7.21
   0 -28 -18    7.03    2.59
   0 -28 -19    2.04    1.53
   0 -28 -20    2.16    1.70
   0 -28 -21   60.93    6.80
   0 -28 -22   15.18    3.72
   0 -28 -23   33.88    5.37
  -1   0   4  216.64    5.18
  -1   0   5    1.43    0.45
  -1   0   6  397.22    8.84
  -1   0   7    0.21    0.51
  -1   0   8  110.59    4.40
  -1   0   9   -0.09    0.40
  -1   0  10    8.87    1.47
  -1   0  11    1.61    0.82
  -1   0  12   10.10    1.60
  -1   0  13    0.08    0.71
  -1   0  14   54.12    4.15
  -1   0  15    1.17    1.20
  -1   0  16   11.99    2.08
  -1   0  17    0.82    0.88
  -1   0  18  209.94    9.35
  -1   0  19    2.35    1.62
  -1   0  20  479.00   15.40
  -1   0  21    0.12    1.15
  -1   0  22  121.16    7.41
  -1   0  23   -0.47    0.89
  -1   0  24  218.71   10.44
  -1   0  25    2.59    1.43
  -1   0  26   44.24    4.77
  -1   0  27    3.58    1.50
  -1   0  28    8.63    2.29
  -1   0  29    1.07    1.34
  -1   0  30  121.13    8.34
  -1   0  31    3.32    1.75
  -1   0  32  114.95    8.24
  -1   0  33    3.56    1.83
  -1   0  34   67.86    6.54
  -1   0  35    2.99    1.91
  -1   0  36    6.90    2.45
  -1   0  37    2.05    1.87
  -1  -1   4  263.72    6.07
  -1   1   4  260.02    5.98
  -1  -1   5  526.27   10.56
  -1   1   5  540.00   10.71
  -1  -1   6   15.72    1.37
  -1   1   6   15.95    1.45
  -1  -1   7   48.33    2.56
  -1   1   7   44.03    2.73
  -1   1   8   17.08    1.80
   1  -1   8   18.78    1.70
  -1  -1   8   16.90    1.61
  -1  -1   9  149.87    5.44
   1  -1   9  158.98    5.51
  -1   1   9  143.85    5.89
  -1  -1  10    7.53    1.19
  -1   1  10    9.76    1.57
   1  -1  10    9.90    1.40
   1  -1  11    0.59    0.52
  -1  -1  11    1.30    0.59
  -1   1  11    1.97    0.80
  -1   1  12   18.64    2.37
   1  -1  12   21.09    2.28
  -1  -1  12   20.61    2.16
  -1  -1  13   20.59    2.35
  -1   1  13   23.40    2.66
   1  -1  13   19.17    2.31
  -1  -1  14  319.50   10.25
   1  -1  14  261.22    9.43
  -1   1  14  311.31   10.59
   1  -1  15   94.96    5.45
  -1  -1  15  104.03    5.83
  -1   1  15  105.49    5.97
  -1  -1  16    7.81    1.59
  -1   1  16    9.58    1.86
   1  -1  16    8.14    1.70
  -1   1 -16    6.39    1.52
   1  -1  17   13.86    2.32
  -1   1  17   18.68    2.84
  -1  -1  17   12.96    2.21
  -1   1  18  425.58   13.83
  -1  -1  18  403.84   13.66
   1  -1  18  395.29   13.02
  -1  -1  19  274.16   11.17
  -1   1  19  300.15   11.42
   1  -1  19  288.22   11.00
  -1  -1  20    8.60    2.01
  -1   1  20    9.42    2.20
   1  -1  20   12.11    2.40
  -1  -1  21   96.46    6.61
  -1   1  21  103.30    6.65
   1  -1  21   94.98    6.30
   1  -1  22   11.19    2.17
  -1  -1  22   17.49    2.99
  -1   1  22   18.15    2.89
  -1   1  23   16.76    2.78
  -1  -1  23   13.06    2.52
   1  -1  23   16.81    2.76
  -1   1  24   37.52    4.33
  -1  -1  24   31.49    3.87
  -1   1  25   19.10    3.15
  -1  -1  25   16.46    3.00
  -1   1  26   14.31    2.76
  -1  -1  26    9.62    2.34
  -1  -1  27   51.73    5.23
  -1   1  27   63.61    5.66
  -1  -1  28  271.17   12.49
  -1   1  28  269.61   12.41
  -1  -1  29    8.49    2.56
  -1   1  29   10.89    2.84
  -1   1  30   22.03    3.66
  -1  -1  30   18.49    3.42
  -1   1  31   59.61    6.01
  -1  -1  31   46.92    5.36
  -1   1  32  191.78   10.93
  -1  -1  32  187.13   10.74
  -1  -1  33   72.74    6.64
  -1   1  33   83.82    7.23
  -1   1  34    4.64    2.37
  -1  -1  34    5.45    2.35
  -1   1  35   13.93    3.03
  -1  -1  35   14.12    3.28
  -1  -1  36    5.18    1.90
  -1  -1  37    3.31    2.19
  -1  -1  38   34.46    5.09
  -1  -1  39    5.81    2.36
  -1   2   2    5.31    0.55
  -1   2   3    3.49    0.53
  -1  -2   3    3.52    0.58
  -1  -2   4   15.62    1.28
   1  -2   4   16.09    1.03
  -1   2   4   14.63    1.24
   1  -2   5  355.53    7.37
  -1   2   5  310.44    7.97
  -1  -2   5  354.26    7.86
  -1   2   6  843.15   17.66
  -1  -2   6  992.88   17.33
   1  -2   6  949.44   16.87
   1  -2   7   31.40    2.19
  -1   2   7   24.30    2.17
  -1  -2   7   28.46    1.96
  -1   2   8 1889.47   34.42
  -1   2  -8 1982.49   34.13
   1  -2   8 1854.12   33.34
  -1   2   9    4.48    1.08
   1  -2   9    8.95    1.50
  -1   2  -9    4.42    1.12
  -1  -2   9    5.07    1.06
  -1   2  10    0.59    0.61
   1  -2  10    1.60    0.77
  -1  -2  10    0.94    0.70
  -1   2 -10    1.52    0.69
  -1   2  11   12.30    1.83
  -1   2 -11   13.00    1.88
   1  -2  11   11.03    1.60
  -1  -2  11   12.58    1.61
  -1   2 -12   53.87    3.87
   1  -2  12   51.04    3.57
  -1   2  12   47.35    3.63
  -1  -2  12   50.72    3.39
  -1   2 -13    0.93    0.82
  -1  -2  13    1.49    0.80
  -1   2  13    3.05    1.13
   1  -2  13    2.01    1.00
   1  -2  14   47.34    3.69
  -1   2  14   58.60    4.28
  -1  -2  14   53.70    3.85
  -1   2 -14   56.15    4.26
  -1  -2  15    2.49    0.95
  -1   2  15    4.01    1.34
  -1   2 -15    2.46    1.16
   1  -2  15    2.18    0.94
   1  -2  16    2.03    1.19
  -1   2 -16    0.74    0.76
  -1  -2  16   -0.99    1.09
  -1   2  16    3.80    1.26
  -1  -2  17   18.86    2.50
  -1   2  17   20.62    2.71
   1  -2  17   15.91    2.34
   1  -2  18   49.14    4.17
  -1   2  18   60.10    4.76
  -1  -2  18   48.46    4.19
   1  -2  19  373.09   12.66
  -1   2  19  397.06   13.35
  -1  -2  19  334.94   12.46
   1  -2  20   92.34    6.04
  -1  -2  20   78.45    5.86
  -1   2  20   90.53    6.18
  -1   2  21   18.10    2.99
  -1  -2  21   13.47    2.54
   1  -2  21   15.59    2.80
  -1   2  22  607.08   17.86
  -1  -2  22  535.37   17.60
   1  -2  22  584.54   17.59
  -1  -2  23   95.09    6.96
   1  -2  23  119.82    7.43
  -1   2  23  116.02    7.34
   1  -2  24  115.40    7.44
  -1  -2  24  101.45    7.09
  -1   2  24  101.31    6.93
  -1  -2  25   33.28    4.13
  -1   2  25   44.52    4.62
   1  -2  25   39.42    4.41
  -1  -2  26   95.50    7.01
   1  -2  26  109.26    7.38
  -1   2  26  100.44    7.13
  -1  -2  27   51.05    5.26
   1  -2  27   55.49    5.33
  -1   2  27   53.87    5.24
  -1   2  28    4.21    1.96
  -1  -2  28    1.79    1.23
  -1  -2  29   13.66    2.77
  -1   2  29    8.50    2.53
  -1  -2  30   17.65    3.34
  -1   2  30   21.89    3.52
  -1  -2  31  118.56    8.51
  -1   2  31  130.94    8.69
  -1   2  32   38.83    4.94
  -1  -2  32   37.04    4.98
  -1  -2  33  137.70    9.38
  -1  -2  34   30.08    4.56
  -1  -2  35    6.56    2.65
  -1  -2  36   56.39    6.11
  -1  -2  37   51.21    6.04
  -1  -2  38   71.21    7.20
  -1  -2  39   11.20    3.02
  -1  -2  40    3.30    2.31
  -1  -3   0   -0.21    0.28
  -1  -3   1   88.04    3.15
  -1  -3  -1   91.21    3.26
  -1   3   2   57.03    1.80
  -1  -3   2   55.70    2.48
  -1   3   3    5.47    0.63
  -1  -3   3    4.96    0.74
  -1   3   4   17.56    1.30
   1  -3   4   14.74    1.13
  -1   3  -4   17.74    1.10
  -1  -3   4   19.38    1.53
  -1  -3   5  490.48   10.11
   1  -3   5  432.43    9.54
  -1   3   5  465.92    9.92
  -1   3  -5  463.53    9.21
  -1   3   6 2358.87   39.00
  -1   3  -6 2390.59   38.31
   1  -3   6 2252.73   38.67
   1  -3   7   59.77    3.23
  -1   3   7   66.47    3.41
  -1   3  -7   59.07    3.03
  -1  -3   7   59.59    3.01
  -1   3  -8 1155.84   21.63
  -1  -3   8 1215.48   21.64
   1  -3   8 1174.78   22.00
  -1   3   8 1087.44   21.88
  -1  -3   9  265.06    7.48
  -1   3   9  237.96    7.75
   1  -3   9  247.60    7.77
  -1   3  -9  238.39    7.53
  -1   3 -10   41.24    3.03
   1  -3  10   45.84    3.21
  -1   3  10   42.28    3.11
  -1  -3  10   48.25    3.04
   1  -3  11   89.34    4.65
  -1   3  11   77.02    4.54
  -1   3 -11   79.17    4.43
  -1  -3  11   88.96    4.33
  -1  -3  12    0.56    0.59
  -1   3  12    1.65    0.93
  -1   3 -12    1.03    0.72
   1  -3  12    0.56    0.74
  -1   3  13    0.43    0.84
   1  -3  13    1.08    0.92
  -1   3 -13    0.39    0.67
  -1  -3  13    0.79    0.60
  -1  -3  14   40.37    3.22
  -1   3  14   35.31    3.37
   1  -3  14   39.12    3.45
  -1   3 -14   34.78    3.30
  -1   3 -15  294.29   10.56
  -1  -3  15  292.52    9.80
   1  -3  15  300.21   10.41
  -1   3  15  298.39   10.61
  -1   3 -16   15.48    2.39
   1  -3  16   17.83    2.64
  -1   3  16   20.09    2.77
  -1  -3  16   11.14    1.99
  -1   3  17  289.12   10.60
  -1  -3  17  258.98    9.84
   1  -3  17  283.13   10.66
  -1  -3  18    0.65    0.61
  -1   3  18    5.05    1.71
   1  -3  18    3.93    1.64
  -1   3  19  315.54   11.60
  -1  -3  19  270.89   10.83
   1  -3  19  303.85   11.47
   1  -3  20 1135.54   26.34
  -1  -3  20 1049.07   25.74
  -1   3  20 1138.39   26.19
  -1  -3  21   14.94    2.81
  -1   3  21   21.50    3.22
   1  -3  21   23.47    3.40
   1  -3  22  133.85    7.61
  -1   3  22  134.63    7.69
  -1  -3  22  130.20    7.90
  -1   3  23   31.90    3.81
   1  -3  23   29.06    3.66
  -1  -3  23   30.53    3.89
  -1   3  24    2.79    1.58
  -1  -3  24    5.04    1.80
   1  -3  24    6.08    1.97
  -1  -3  25   89.75    6.94
   1  -3  25  101.91    7.00
  -1   3  25  106.99    7.19
  -1  -3  26    8.41    2.13
  -1   3  26   13.33    2.82
   1  -3  26    7.91    2.19
  -1   3  27   80.75    6.54
  -1  -3  27   69.12    6.16
   1  -3  27   78.23    6.36
  -1   3  28   76.01    6.41
   1  -3  28   71.84    6.13
  -1  -3  28   69.23    6.30
  -1   3  29   63.31    5.89
   1  -3  29   59.97    5.69
  -1  -3  29   58.87    5.93
   1  -3  30    4.32    2.25
  -1  -3  30    1.36    1.52
  -1  -3  31  204.56   11.31
  -1  -3  32   17.92    3.62
  -1  -3  33  152.80   10.06
  -1  -3  34  209.47   11.83
  -1  -3  35    2.91    1.64
  -1  -3  36    9.48    2.71
  -1  -3  37    1.92    1.81
  -1  -3  38    5.69    2.57
  -1  -3  39    1.76    1.51
  -1  -3  40    5.75    2.41
  -1  -4   0    0.27    0.30
  -1  -4   1   -0.10    0.31
  -1  -4  -1   -0.07    0.29
   1  -4  -2   56.02    1.90
  -1  -4   2   51.22    2.55
  -1   4  -3    0.14    0.18
   1  -4   3    0.76    0.27
  -1  -4   3   -0.11    0.29
   1  -4  -3    0.99    0.43
  -1  -4   4   25.44    1.90
   1  -4   4   29.53    1.42
   1  -4  -4   31.61    1.87
  -1   4  -4   27.93    1.34
   1  -4   5  276.63    6.30
  -1   4  -5  261.78    5.88
  -1  -4   5  270.46    7.13
   1  -4  -5  269.12    7.08
  -1   4  -6  128.73    3.94
  -1  -4   6  121.88    4.48
   1  -4   6  123.56    4.18
   1  -4  -6  122.98    4.88
  -1  -4   7 2775.94   45.27
   1  -4   7 2798.58   45.09
   1  -4  -7 2804.90   46.66
  -1   4  -7 2774.22   44.32
  -1   4   7 2736.60   45.01
  -1   4  -8  183.96    5.72
  -1  -4   8  171.84    5.89
   1  -4   8  175.80    6.04
   1  -4  -8  178.74    6.81
  -1   4   8  180.68    6.09
  -1   4  -9  893.80   17.67
   1  -4   9  865.41   18.24
  -1   4   9  861.56   17.97
  -1  -4   9  906.41   17.78
  -1  -4  10  175.40    6.15
  -1   4 -10  175.55    6.28
   1  -4  10  176.55    6.74
  -1   4  10  167.97    6.44
  -1   4  11  118.82    5.43
  -1  -4  11  120.57    5.14
   1  -4  11  116.76    5.58
  -1   4 -11  118.18    5.30
  -1   4 -12    4.47    1.18
  -1   4  12    3.72    1.09
  -1  -4  12    5.34    1.22
   1  -4  12    4.80    1.36
  -1  -4  13    0.84    0.73
   1  -4  13    0.59    0.88
  -1   4 -13    0.98    0.59
  -1   4  13    0.33    0.55
  -1   4  14  213.45    8.41
  -1   4 -14  219.63    8.55
   1  -4  14  247.38    9.07
  -1  -4  14  235.65    8.25
  -1   4  15   74.49    4.82
  -1  -4  15   67.34    4.39
   1  -4  15   70.68    4.81
  -1   4 -15   70.24    4.80
  -1   4 -16    8.00    1.72
   1  -4  16   13.51    2.27
  -1  -4  16   11.14    1.85
  -1   4  16   11.96    1.97
  -1  -4  17   17.21    2.33
   1  -4  17   15.94    2.65
  -1   4  17   15.87    2.39
  -1  -4  18  213.67    9.05
  -1   4  18  224.42    9.41
   1  -4  18  246.53    9.88
  -1   4  19  136.17    7.34
   1  -4  19  132.82    7.28
  -1  -4  19  124.17    6.90
   1  -4  20   25.48    3.46
  -1   4  20   24.95    3.28
  -1  -4  20   16.11    2.61
  -1   4  21  681.29   19.25
   1  -4  21  728.15   19.94
  -1  -4  21  668.10   19.23
  -1   4  22   13.18    2.80
   1  -4  22    8.57    2.55
  -1  -4  22    2.75    1.82
  -1  -4  23  549.79   18.23
  -1   4  23  616.51   18.44
   1  -4  23  654.77   18.87
   1  -4  24   28.07    3.83
  -1   4  24   29.90    3.85
  -1  -4  24   23.35    3.41
  -1  -4  25   -0.31    1.26
   1  -4  25    0.39    0.99
  -1   4  25    0.47    0.87
  -1  -4  26   -1.29    1.58
   1  -4  26   -0.61    1.12
  -1  -4  27    9.91    2.49
   1  -4  27   15.86    2.91
   1  -4  28   85.28    6.78
  -1  -4  28   77.75    6.76
   1  -4  29   33.30    4.21
  -1  -4  29   36.39    4.67
  -1  -4  30    2.06    1.62
   1  -4  30    2.34    1.63
   1  -4  31    4.38    2.32
  -1  -4  31   -0.37    1.58
   1  -4  32  219.69   11.61
  -1  -4  32  233.98   12.22
  -1  -4  33   71.29    6.80
  -1  -4  34   24.74    4.22
  -1  -4  35  100.56    8.24
  -1  -4  36   45.28    5.59
  -1  -4  37  100.24    8.38
  -1  -4  38    1.49    2.03
  -1  -4  39   16.01    3.44
  -1  -4  40   19.39    3.97
  -1  -5   0    0.07    0.29
   1  -5   0    0.30    0.18
  -1  -5   1   58.78    2.93
   1  -5   1   66.07    1.87
  -1  -5  -1   64.74    3.07
  -1  -5  -2   21.26    1.79
   1  -5   2   23.85    1.06
  -1   5  -2   21.39    1.02
  -1  -5   2   19.55    1.64
   1  -5   3  208.65    4.38
  -1  -5   3  198.01    5.96
  -1   5  -3  209.71    4.49
   1  -5   4    5.53    0.59
   1  -5  -4    7.69    0.87
  -1  -5   4    7.52    1.10
  -1   5  -4    6.31    0.66
   1  -5   5  113.65    3.38
  -1  -5   5  107.35    4.28
  -1   5  -5  107.32    3.32
   1  -5  -5  115.75    3.95
  -1  -5   6 2496.47   41.35
  -1   5  -6 2471.24   39.49
   1  -5  -6 2551.36   41.27
   1  -5   6 2501.38   39.66
   1  -5   7 1388.52   24.05
  -1   5  -7 1360.87   23.75
  -1  -5   7 1425.27   25.21
   1  -5  -7 1401.62   25.41
  -1  -5   8 1693.92   30.12
   1  -5   8 1721.22   29.49
  -1   5  -8 1692.69   29.00
   1  -5  -8 1725.87   30.88
  -1   5  -9   17.74    1.70
   1  -5  -9   20.00    2.26
  -1  -5   9   20.46    2.04
   1  -5   9   20.25    1.93
   1  -5 -10   51.05    3.82
  -1   5 -10   49.07    3.05
   1  -5  10   51.35    3.29
  -1  -5  10   55.63    3.38
  -1  -5  11   32.64    2.64
   1  -5  11   28.95    2.61
   1  -5 -11   33.59    3.32
  -1   5 -11   29.26    2.50
  -1   5 -12   20.69    2.21
   1  -5  12   18.08    2.18
  -1  -5  12   21.36    2.25
   1  -5 -12   20.18    2.57
  -1   5 -13    2.03    0.83
   1  -5  13    3.64    1.09
  -1  -5  13    4.14    1.17
   1  -5 -13    1.55    0.75
  -1   5 -14    0.39    0.49
  -1  -5  14    0.60    0.65
   1  -5  14    0.54    0.80
   1  -5 -14    1.17    0.67
  -1  -5  15   16.03    2.10
  -1   5 -15   16.32    2.27
   1  -5  15   18.40    2.48
  -1   5 -16    2.10    0.88
   1  -5  16    5.25    1.67
  -1  -5  16    3.60    1.08
   1  -5  17   87.11    5.75
  -1  -5  17   77.47    4.99
   1  -5  18  239.61    9.98
  -1  -5  18  229.34    9.32
   1  -5  19  175.34    8.50
  -1  -5  19  143.93    7.44
  -1  -5  20 1094.85   26.06
   1  -5  20 1186.55   27.07
   1  -5  21  271.74   11.12
  -1  -5  21  253.23   10.75
   1  -5  22  340.29   12.83
  -1  -5  22  299.66   12.18
   1  -5  23    3.95    1.92
  -1  -5  23    0.55    0.87
  -1  -5  24    5.07    1.69
   1  -5  24    9.22    2.49
  -1  -5  25    5.10    1.70
   1  -5  25   11.50    2.56
   1  -5  26    5.07    1.74
  -1  -5  26    2.19    1.17
  -1  -5  27    6.90    2.02
   1  -5  27    9.61    2.32
  -1  -5  28    0.78    1.13
   1  -5  28    1.25    1.52
   1  -5  29    4.59    2.03
  -1  -5  29    4.41    1.80
   1  -5  30   13.18    2.79
  -1  -5  30   12.25    3.04
   1  -5  31   22.41    3.89
  -1  -5  31   12.87    3.30
  -1  -5  32  216.54   11.96
   1  -5  32  223.44   11.78
   1  -5  33  116.94    8.58
  -1  -5  33  105.00    8.31
  -1  -5  34  275.91   13.92
   1  -5  34  307.98   14.21
  -1  -5  35   14.23    3.30
  -1  -5  36    8.72    3.08
  -1  -5  37    1.22    1.61
  -1  -5  38    3.72    2.00
  -1  -5  39    7.83    2.61
  -1  -5  40    3.29    2.27
  -1  -6   0   -0.11    0.39
   1  -6   0    0.71    0.32
  -1  -6  -1   45.60    2.76
  -1  -6   1   44.48    2.67
   1  -6   1   48.91    1.79
  -1  -6  -2  191.58    6.19
   1  -6   2  206.53    4.49
  -1   6  -2  194.26    4.42
  -1  -6   2  181.80    5.90
  -1   6  -3   33.96    1.57
  -1  -6   3   32.49    2.30
   1  -6   3   34.63    1.55
   1  -6   4  171.45    4.27
  -1   6  -4  174.76    4.42
  -1  -6   4  161.14    5.58
  -1   6  -5   31.20    1.72
   1  -6   5   33.01    1.70
  -1  -6   5   31.51    2.31
  -1   6  -6 1145.06   19.95
   1  -6   6 1149.33   19.88
  -1  -6   6 1167.44   22.07
   1  -6  -6 1181.67   21.00
  -1   6  -7  801.34   15.03
   1  -6  -7  800.32   16.04
  -1  -6   7  801.95   16.53
   1  -6   7  786.87   14.96
  -1   6  -8  704.76   13.90
   1  -6   8  684.45   13.86
  -1  -6   8  682.85   14.99
   1  -6  -8  689.91   15.11
   1  -6   9  106.28    4.41
  -1   6  -9  110.75    4.39
   1  -6  -9  115.55    5.20
  -1  -6   9  114.42    4.94
   1  -6  10  108.88    4.73
  -1   6 -10  110.30    4.70
   1  -6 -10  115.96    5.55
  -1  -6  10  118.20    5.21
   1  -6  11  259.36    8.20
  -1  -6  11  255.33    8.24
   1  -6 -11  249.82    8.96
  -1   6 -11  264.48    8.08
   1  -6 -12   -0.49    0.60
  -1   6 -12    0.89    0.70
   1  -6  12    1.08    0.53
  -1  -6  12   -0.46    0.66
   1  -6 -13  122.34    6.63
  -1   6 -13  125.74    5.81
  -1  -6  13  125.53    5.79
   1  -6  13  129.70    6.08
  -1  -6  14    3.92    1.13
   1  -6  14    5.86    1.35
   1  -6 -14    1.41    0.75
  -1   6 -14    3.06    0.85
  -1  -6  15   91.85    5.13
  -1   6 -15   92.93    5.41
   1  -6  15   90.93    5.46
  -1  -6  16   67.42    4.52
   1  -6  16   71.29    4.96
  -1   6 -16   66.50    4.80
   1  -6  17   38.72    3.91
  -1  -6  17   36.21    3.44
   1  -6  18   32.91    3.60
  -1  -6  18   30.41    3.23
  -1  -6  19  106.47    6.24
   1  -6  19  114.39    6.89
   1  -6  20  504.28   15.89
  -1  -6  20  476.83   15.06
  -1  -6  21   49.23    4.53
   1  -6  21   49.46    4.69
   1  -6  22  195.98    9.60
  -1  -6  22  186.48    9.19
  -1  -6  23  108.75    7.10
   1  -6  23  123.39    7.58
  -1  -6  24    8.52    2.21
   1  -6  24    9.11    2.37
   1  -6  25   39.35    4.36
  -1  -6  25   26.98    3.73
  -1  -6  26    3.04    1.75
   1  -6  26    5.63    1.68
  -1  -6  27   21.74    3.41
   1  -6  27   24.36    3.65
   1  -6  28   11.47    2.73
  -1  -6  28   10.14    2.50
   1  -6  29  129.38    8.37
  -1  -6  29  107.82    8.17
   1  -6  30    2.36    1.88
  -1  -6  30    2.03    1.03
   1  -6  31   24.96    3.92
  -1  -6  31   28.16    4.32
   1  -6  32    9.37    2.71
  -1  -6  32    8.34    2.88
  -1  -6  33  130.88    9.45
   1  -6  33  147.90    9.67
   1  -6  34  103.90    8.16
  -1  -6  34   81.45    7.49
   1  -6  35   10.96    2.93
  -1  -6  35   13.20    3.44
   1  -6  36   79.86    7.28
  -1  -6  36   70.63    7.14
  -1  -6  37    6.79    2.51
  -1  -6  38   16.10    3.63
  -1  -6  39   16.73    3.84
  -1  -6  40   10.81    3.05
   1  -7   0    0.25    0.30
  -1  -7   0    0.05    0.35
  -1  -7   1    6.54    1.16
   1  -7   1    7.41    0.77
   1  -7  -1    7.95    0.84
  -1  -7  -1    7.02    1.22
  -1  -7  -2    3.74    0.90
  -1  -7   2    2.61    0.68
   1  -7   2    2.57    0.46
  -1   7  -2    3.29    0.54
  -1  -7   3  178.41    5.98
  -1  -7  -3  180.24    6.28
   1  -7   3  186.34    4.63
  -1   7  -3  176.58    4.59
  -1   7  -4  137.51    4.02
   1  -7   4  134.33    3.87
  -1  -7   4  134.80    5.16
  -1  -7   5  977.78   19.20
  -1   7  -5  973.38   17.32
   1  -7   5  972.48   17.05
   1  -7   6  190.10    5.29
  -1  -7   6  207.70    6.82
  -1   7  -6  208.08    5.65
   1  -7   7 3404.37   53.48
  -1   7  -7 3421.05   53.84
   1  -7  -7 3352.45   54.57
  -1  -7   7 3462.47   55.89
   1  -7   8   73.51    3.32
   1  -7  -8   83.87    3.98
  -1   7  -8   74.56    3.41
  -1  -7   8   78.42    4.05
  -1   7  -9  151.91    5.32
   1  -7   9  150.96    5.25
   1  -7  -9  152.98    5.86
  -1  -7   9  154.70    6.03
  -1   7 -10  361.81    9.54
   1  -7  10  356.17    9.41
   1  -7 -10  376.58   10.67
  -1  -7  10  378.10   10.45
  -1   7 -11   73.25    3.94
   1  -7 -11   77.99    4.56
   1  -7  11   73.91    3.95
  -1  -7  11   75.84    4.34
  -1   7 -12   11.89    1.66
   1  -7 -12    9.46    1.76
  -1  -7  12   10.76    1.72
   1  -7  12   11.49    1.63
   1  -7 -13   11.31    1.82
  -1  -7  13    7.18    1.52
  -1   7 -13   12.58    1.81
   1  -7  13   11.43    1.70
   1  -7  14   48.34    3.75
  -1  -7  14   50.44    3.72
  -1   7 -14   51.80    3.81
   1  -7  15    3.76    1.21
  -1   7 -15    4.00    1.15
  -1  -7  15    5.19    1.39
   1  -7  16    0.74    0.61
  -1  -7  16    4.84    1.41
  -1   7 -16    3.90    1.23
   1  -7  17   13.21    2.25
  -1  -7  17    8.99    1.76
   1  -7  18   25.25    3.23
  -1  -7  18   28.89    3.14
   1  -7  19  986.58   24.16
  -1  -7  19  968.34   23.02
  -1  -7  20   14.81    2.51
   1  -7  20   18.80    3.10
   1  -7  21 1009.84   25.12
  -1  -7  21  956.68   23.90
   1  -7  22   73.62    5.80
  -1  -7  22   62.91    5.22
  -1  -7  23    0.48    0.81
   1  -7  23    0.58    1.10
  -1  -7  24   12.05    2.58
   1  -7  24   10.74    2.43
   1  -7  25    8.44    2.24
  -1  -7  25    5.66    1.93
  -1  -7  26    6.37    1.66
   1  -7  26    9.60    2.27
   1  -7  27    8.26    2.26
  -1  -7  27    3.65    1.54
  -1  -7  28   18.81    3.45
   1  -7  28   16.07    3.01
  -1  -7  29   20.45    3.54
   1  -7  29   22.13    3.64
  -1  -7  30   16.05    3.27
   1  -7  30   24.46    3.75
  -1  -7  31   24.92    4.05
   1  -7  31   28.14    4.10
   1  -7  32    2.59    1.93
  -1  -7  32    2.35    2.05
   1  -7  33  431.64   17.07
  -1  -7  33  413.88   17.80
   1  -7  34   11.10    3.32
  -1  -7  34   15.69    3.80
  -1  -7  35  100.57    8.51
   1  -7  35  114.69    8.80
   1  -7  36   51.55    5.97
  -1  -7  36   49.51    6.14
  -1  -7  37    2.14    1.89
   1  -7  37    3.44    2.06
  -1  -7  38   14.45    3.61
  -1  -7  39    1.83    2.07
  -1  -7  40    5.54    2.26
   1  -8   0    0.05    0.28
  -1  -8   0   -0.11    0.44
  -1  -8  -1  140.14    5.43
   1  -8   1  131.83    3.97
   1  -8  -1  142.15    4.27
  -1  -8   1  125.81    5.16
  -1  -8  -2  287.00    8.37
  -1   8  -2  274.64    6.45
   1  -8   2  281.22    6.44
  -1  -8   2  258.00    7.84
   1  -8   3    0.18    0.27
  -1  -8  -3    1.16    0.68
  -1  -8   3    1.60    0.72
  -1   8  -3    0.53    0.26
   1  -8   4   28.49    1.72
  -1   8  -4   26.41    1.73
  -1  -8   4   25.52    2.20
   1  -8   5  517.68   10.49
  -1  -8   5  515.12   12.34
  -1   8  -5  512.74   10.71
   1  -8   6 1154.19   20.56
  -1   8  -6 1186.87   20.96
  -1  -8   6 1177.55   22.78
  -1   8  -7   57.60    2.97
   1  -8   7   57.41    2.81
  -1  -8   7   67.28    3.90
  -1   8  -8 1272.84   23.22
  -1  -8   8 1266.82   24.76
   1  -8   8 1296.28   22.83
  -1   8  -9   23.70    2.06
  -1  -8   9   19.89    2.14
   1  -8   9   20.86    1.84
   1  -8  -9   25.04    2.28
  -1   8 -10    1.06    0.60
  -1  -8  10    0.03    0.54
   1  -8 -10    0.91    0.64
   1  -8  10    0.46    0.43
   1  -8  11   62.12    3.58
  -1   8 -11   69.52    3.84
   1  -8 -11   67.29    4.14
  -1  -8  11   67.70    4.16
   1  -8  12   67.61    3.87
  -1   8 -12   66.69    3.97
  -1  -8  12   63.39    4.09
   1  -8 -12   63.80    4.33
   1  -8  13   42.80    3.22
  -1  -8  13   40.11    3.34
   1  -8 -13   38.66    3.43
  -1   8 -13   40.73    3.21
  -1  -8  14   17.67    2.27
   1  -8  14   19.69    2.26
  -1   8 -14   24.46    2.56
   1  -8  15   10.02    1.74
  -1  -8  15   12.38    2.01
  -1   8 -15   12.84    2.04
  -1  -8  16  142.85    6.87
   1  -8  16  126.73    6.56
   1  -8  17   41.75    3.87
  -1  -8  17   37.18    3.52
   1  -8  18   22.05    2.93
  -1  -8  18   21.21    2.65
   1  -8  19  309.16   11.83
  -1  -8  19  305.51   11.22
  -1  -8  20  458.20   14.54
   1  -8  20  444.05   14.96
   1  -8  21  256.47   11.14
  -1  -8  21  238.57   10.22
   1  -8  22  320.45   12.76
  -1  -8  22  292.94   11.87
  -1  -8  23    9.32    1.99
   1  -8  23    7.82    2.15
  -1  -8  24    2.89    1.31
   1  -8  24    3.98    1.82
   1  -8  25   38.72    4.42
  -1  -8  25   35.02    4.15
   1  -8  26    0.60    1.13
  -1  -8  26   -2.02    1.82
  -1  -8  27   31.08    4.13
   1  -8  27   36.89    4.40
   1  -8  28   22.88    3.55
  -1  -8  28   16.31    3.08
   1  -8  29    9.29    2.50
  -1  -8  29    4.83    2.00
   1  -8  30   24.03    3.73
  -1  -8  30   15.63    3.19
   1  -8  31    0.99    0.92
  -1  -8  31    1.96    1.17
  -1  -8  32    7.36    2.18
   1  -8  32   18.04    3.24
  -1  -8  33   30.21    4.91
   1  -8  33   28.02    4.39
   1  -8  34   83.87    7.35
  -1  -8  34   74.52    7.36
   1  -8  35   80.86    7.29
  -1  -8  35   81.99    7.76
   1  -8  36   43.95    5.51
  -1  -8  36   35.93    5.30
  -1  -8  37    3.58    1.94
   1  -8  37    3.09    1.90
  -1  -8  38    5.71    2.27
   1  -8  38   10.13    2.95
  -1  -8  39    1.83    1.39
  -1  -8  40    9.15    3.00
   1  -9   0    0.23    0.30
  -1  -9   0   -0.18    0.50
  -1  -9   1   85.00    4.25
   1  -9  -1   83.95    3.38
   1  -9   1   81.98    3.21
  -1  -9  -1   79.54    4.24
   1  -9   2   37.50    2.09
  -1  -9   2   34.59    2.64
  -1  -9  -2   32.04    2.70
   1  -9   3   16.12    1.39
  -1  -9   3   20.98    2.09
  -1  -9  -3   22.70    2.26
  -1   9  -3   16.86    1.42
  -1  -9   4    0.17    0.49
  -1  -9  -4    1.65    0.75
  -1   9  -4    1.69    0.51
   1  -9   4    0.87    0.48
  -1  -9   5  171.43    6.39
  -1   9  -5  168.66    5.27
   1   9  -5  168.42    6.78
   1  -9   5  171.83    5.15
  -1  -9   6  912.76   19.12
  -1   9  -6  904.92   17.39
   1   9  -6  921.59   19.81
   1  -9   6  910.77   17.05
   1  -9   7 1651.03   28.34
  -1  -9   7 1681.80   30.69
   1   9  -7 1640.53   31.29
  -1   9  -7 1642.12   28.77
  -1   9  -8  207.04    6.57
  -1  -9   8  218.31    7.55
   1   9  -8  208.95    7.97
   1  -9   8  200.79    6.16
   1   9  -9   71.21    4.52
  -1   9  -9   73.53    3.75
  -1  -9   9   78.39    4.36
   1  -9   9   71.59    3.55
   1   9 -10   74.08    4.61
  -1   9 -10   74.25    3.92
  -1  -9  10   74.63    4.31
   1  -9 -10   71.80    4.08
   1  -9  10   71.52    3.69
   1  -9 -11   41.31    3.23
   1  -9  11   43.56    2.97
  -1   9 -11   46.19    3.23
  -1  -9  11   48.39    3.54
  -1  -9  12   16.59    2.12
   1  -9 -12   13.76    2.05
   1  -9  12   16.52    1.93
  -1   9 -12   16.78    2.01
  -1   9 -13    4.65    1.17
   1  -9  13    2.39    0.88
  -1  -9  13    3.55    1.14
   1  -9  14    1.38    0.81
  -1   9 -14    1.86    0.99
  -1  -9  14   -0.26    0.68
  -1  -9  15  183.65    7.87
  -1   9 -15  177.48    7.72
   1  -9  15  193.29    7.75
   1  -9  16   21.58    2.59
  -1  -9  16   20.97    2.66
  -1  -9  17    4.35    1.30
   1  -9  17    3.60    1.06
  -1  -9  18   76.49    5.18
   1  -9  18   69.38    5.08
   1  -9  19  166.57    8.33
  -1  -9  19  177.67    8.27
   1  -9  20  616.39   18.12
  -1  -9  20  623.47   17.61
   1  -9  21  807.39   21.91
  -1  -9  21  790.61   21.04
   1  -9  22    4.46    1.64
  -1  -9  22    2.93    1.37
  -1  -9  23  121.99    7.57
   1  -9  23  132.65    8.15
  -1  -9  24  131.20    8.00
   1  -9  24  126.24    8.05
  -1  -9  25  113.59    7.64
   1  -9  25  110.57    7.65
  -1  -9  26   34.29    4.25
   1  -9  26   39.42    4.48
  -1  -9  27   58.16    5.78
   1  -9  27   75.35    6.35
  -1  -9  28    9.23    2.59
   1  -9  28    6.78    2.24
   1  -9  29  109.14    7.89
  -1  -9  29  112.52    8.37
   1  -9  30    1.29    1.37
  -1  -9  30   -0.53    1.18
   1  -9  31    0.61    1.14
  -1  -9  31    0.21    1.32
   1  -9  32  111.84    8.30
  -1  -9  32   92.53    8.12
   1  -9  33   63.50    6.26
  -1  -9  33   65.64    7.01
   1  -9  34  177.70   10.74
  -1  -9  34  170.80   11.54
   1  -9  35  160.13   10.27
  -1  -9  35  144.60   10.57
   1  -9  36   16.89    3.60
  -1  -9  36   19.66    4.00
  -1  -9  37    8.21    2.74
   1  -9  37   18.67    3.72
   1  -9  38    8.62    2.76
  -1  -9  38    6.31    2.66
  -1  -9  39    9.05    2.95
   1  -9  39   13.86    3.43
   1  -9  40   27.37    4.51
   1 -10   0    0.14    0.36
  -1 -10   0    0.69    0.49
   1  10  -1  361.65   10.67
   1 -10  -1  393.09    9.15
  -1 -10   1  379.59   10.53
  -1 -10  -1  381.87   10.72
   1 -10   1  378.96    8.83
   1 -10   2   83.62    3.44
   1  10  -2   79.13    4.39
  -1 -10   2   77.89    4.25
   1 -10  -2   81.63    3.62
  -1 -10  -2   81.65    4.52
  -1 -10  -3  270.86    8.78
   1 -10   3  260.73    6.91
   1  10  -3  252.08    8.57
  -1  10  -3  266.87    7.04
  -1 -10   3  260.04    8.46
  -1 -10  -4   96.77    5.01
  -1  10  -4   93.73    3.82
  -1 -10   4   92.58    4.72
   1 -10   4   97.86    3.83
   1  10  -4   94.59    4.92
  -1 -10   5 1036.65   21.30
   1  10  -5 1015.02   21.96
  -1  10  -5 1020.73   19.29
   1 -10   5 1047.65   19.16
   1 -10   6  271.84    7.28
   1  10  -6  270.01    9.22
  -1  10  -6  272.27    7.58
  -1 -10   6  262.09    8.62
  -1 -10   7  839.03   18.57
   1 -10   7  861.20   16.65
  -1  10  -7  830.32   17.03
   1  10  -7  848.63   19.42
   1  10  -8   31.67    2.98
  -1  10  -8   32.43    2.47
   1 -10   8   31.34    2.29
  -1 -10   8   33.73    2.89
  -1  10  -9  363.34    9.88
  -1 -10   9  378.71   10.90
   1  10  -9  359.19   11.42
   1 -10   9  352.01    9.26
  -1 -10  10   11.52    1.75
   1 -10  10   12.80    1.63
  -1  10 -10   10.58    1.54
  -1  10 -11   11.28    1.65
  -1 -10  11   10.17    1.70
   1 -10  11   10.80    1.54
   1 -10 -11    8.29    1.49
   1 -10 -12    5.21    1.24
  -1  10 -12    6.08    1.29
  -1 -10  12    7.90    1.61
   1 -10  12    5.33    1.24
  -1 -10  13  153.11    6.93
   1 -10  13  140.33    6.00
  -1  10 -13  144.85    6.53
  -1  10 -14    2.25    0.99
  -1 -10  14    3.56    1.41
   1 -10  14    2.10    0.88
   1 -10  15   59.04    4.09
  -1  10 -15   57.42    4.27
  -1 -10  15   59.10    4.36
  -1 -10  16    4.77    1.58
   1 -10  16    2.09    0.68
  -1 -10  17  316.64   11.20
   1 -10  17  303.31   10.78
   1 -10  18   78.22    5.32
  -1 -10  18   72.12    5.18
   1 -10  19  378.91   13.01
  -1 -10  19  383.09   12.99
   1 -10  20  185.28    9.01
  -1 -10  20  188.49    8.88
   1 -10  21  583.62   17.85
  -1 -10  21  597.78   17.68
   1 -10  22    1.86    1.30
  -1 -10  22    4.18    1.66
  -1 -10  23   45.71    4.59
   1 -10  23   39.94    4.41
   1 -10  24   51.23    5.10
  -1 -10  24   57.16    5.26
  -1 -10  25    1.37    1.25
   1 -10  25    2.53    1.49
  -1 -10  26    3.69    1.52
   1 -10  26    0.30    1.07
   1 -10  27    2.95    1.28
  -1 -10  27    2.65    0.92
   1 -10  28   -1.11    1.41
  -1 -10  28   -0.71    1.52
   1 -10  29    2.01    1.57
  -1 -10  29   -1.31    1.89
   1 -10  30   20.04    3.60
  -1 -10  30   10.46    2.71
  -1 -10  31   25.54    4.26
   1 -10  31   30.84    4.37
   1 -10  32   63.57    6.38
  -1 -10  32   57.11    6.64
   1 -10  33   21.95    3.91
  -1 -10  33   15.64    3.53
   1 -10  34   54.08    5.92
  -1 -10  34   46.90    6.07
   1 -10  35  129.28    9.31
  -1 -10  35  120.48    9.68
  -1 -10  36    1.45    2.04
   1 -10  36    3.74    2.24
  -1 -10  37   24.32    4.41
   1 -10  37   41.44    5.51
  -1 -10  38    6.51    2.26
   1 -10  38    9.55    2.72
  -1 -10  39    0.01    1.19
   1 -10  39    1.10    1.13
   1 -10  40    3.37    1.81
   1 -10  41   14.82    3.42
   1 -11   0   -0.02    0.33
  -1 -11   0    0.16    0.67
   1 -11   1   74.10    3.43
   1  11  -1   77.27    4.53
  -1 -11   1   75.07    4.33
   1 -11  -1   72.85    3.52
  -1 -11  -1   77.49    4.39
   1 -11   2  156.83    5.22
   1  11  -2  145.31    6.39
  -1 -11  -2  152.27    6.51
   1 -11  -2  158.39    5.46
  -1 -11   2  144.99    6.24
   1 -11   3    8.72    1.14
  -1 -11   3    7.07    1.38
  -1 -11  -3    8.01    1.47
  -1  11  -3    5.97    0.97
   1  11  -3    6.87    1.36
   1 -11  -3    8.99    1.29
   1 -11   4    2.19    0.70
   1  11  -4    1.68    0.59
  -1 -11   4    1.35    0.70
  -1 -11  -4    2.41    0.97
  -1  11  -4    2.22    0.51
  -1 -11  -5   61.41    4.10
  -1 -11   5   62.59    3.96
  -1  11  -5   61.19    3.25
   1  11  -5   60.98    4.13
   1 -11   5   68.36    3.39
   1  11  -6  743.86   17.90
   1 -11   6  761.79   15.37
  -1 -11   6  749.55   17.17
  -1  11  -6  738.77   15.66
  -1 -11   7   82.12    4.67
  -1  11  -7   86.52    4.16
   1 -11   7   86.16    3.91
   1  11  -7   78.16    4.89
  -1  11  -8  426.79   10.98
   1 -11   8  413.67   10.40
  -1 -11   8  431.94   12.23
   1 -11   9   16.99    1.79
  -1  11  -9   16.68    1.94
  -1 -11   9   17.26    2.24
   1 -11  10   46.07    3.08
  -1 -11  10   46.62    3.60
  -1  11 -10   46.25    3.29
  -1  11 -11   61.16    3.90
   1 -11  11   62.94    3.66
  -1 -11  11   65.17    4.32
  -1 -11  12   51.57    3.93
  -1  11 -12   52.01    3.67
   1 -11  12   53.69    3.47
   1 -11  13   17.02    2.05
  -1 -11  13   17.73    2.39
  -1  11 -13   14.87    2.06
  -1 -11  14   13.79    2.08
  -1  11 -14   10.70    1.83
   1 -11  14   12.86    1.85
   1 -11  15  227.39    8.43
  -1 -11  15  234.76    9.17
   1 -11  16   48.25    3.75
  -1 -11  16   49.82    4.14
   1 -11  17   20.88    2.60
  -1 -11  17   22.24    2.84
  -1 -11  18   44.19    4.08
   1 -11  18   48.18    4.11
  -1 -11  19  176.45    8.47
   1 -11  19  167.30    8.19
   1 -11  20  231.02   10.07
  -1 -11  20  231.59   10.05
   1 -11  21   13.66    2.50
  -1 -11  21   12.66    2.47
   1 -11  22   46.76    4.67
  -1 -11  22   45.98    4.49
   1 -11  23   28.26    3.64
  -1 -11  23   30.66    3.71
  -1 -11  24    4.79    1.60
   1 -11  24    1.75    1.06
  -1 -11  25   10.02    2.25
   1 -11  25   11.96    2.62
   1 -11  26    9.42    2.29
  -1 -11  26    7.82    2.19
  -1 -11  27  126.68    8.60
   1 -11  27  125.38    8.53
  -1 -11  28   19.25    3.39
   1 -11  28   22.24    3.72
   1 -11  29   71.80    6.54
  -1 -11  29   72.11    6.79
   1 -11  30    2.71    1.84
  -1 -11  30   -1.20    1.54
   1 -11  31   93.50    7.62
  -1 -11  31   74.93    7.32
  -1 -11  32   42.22    5.44
   1 -11  32   39.21    5.03
  -1 -11  33   51.95    6.14
   1 -11  33   67.62    6.94
   1 -11  34   97.38    8.11
  -1 -11  34   84.99    8.22
   1 -11  35   11.72    3.02
  -1 -11  35    9.69    3.07
  -1 -11  36    3.81    1.61
   1 -11  36    8.14    2.54
  -1 -11  37   34.95    5.26
   1 -11  37   41.70    5.35
  -1 -11  38   40.61    5.75
   1 -11  38   49.00    5.92
   1 -11  39   10.47    3.03
  -1 -11  39    5.83    2.78
   1 -11  40    0.91    1.12
   1 -12   0   -0.02    0.40
  -1 -12   0    0.29    0.68
   1 -12  -1   28.81    2.22
   1 -12   1   29.61    2.19
  -1 -12   1   29.40    2.78
  -1 -12  -1   26.25    2.69
   1  12  -2  420.51   12.45
  -1 -12   2  447.89   12.32
   1 -12  -2  432.63   10.85
   1 -12   2  438.43   10.46
  -1 -12  -2  449.76   12.55
  -1 -12  -3   -0.09    0.56
  -1 -12   3   -0.11    0.61
   1 -12  -3    0.66    0.42
   1 -12   3    0.37    0.37
   1  12  -3    0.31    0.45
   1  12  -4    7.37    1.55
  -1 -12   4    7.00    1.34
   1 -12   4    6.58    1.07
  -1  12  -4    8.06    1.16
  -1 -12  -4    7.50    1.58
  -1  12  -5    3.62    0.81
  -1 -12   5    3.06    0.94
   1 -12   5    3.01    0.67
  -1 -12  -5    3.74    1.14
   1 -12   6  277.11    7.90
  -1 -12   6  286.34    9.33
  -1  12  -6  259.14    7.96
  -1 -12   7  185.93    7.38
   1 -12   7  182.36    6.23
  -1  12  -7  171.02    6.37
  -1 -12   8   62.42    4.23
   1 -12   8   62.18    3.48
  -1  12  -8   58.20    3.61
  -1 -12   9    2.25    0.87
   1 -12   9    1.50    0.68
  -1  12  -9    1.32    0.56
  -1 -12  10    0.80    0.64
   1 -12  10    1.09    0.54
  -1  12 -10    0.53    0.50
  -1  12 -11  127.99    5.99
  -1 -12  11  137.81    6.60
   1 -12  11  133.10    5.61
  -1  12 -12   59.51    4.10
   1 -12  12   62.59    3.87
  -1 -12  12   65.51    4.60
   1 -12  13    2.86    0.85
  -1  12 -13    3.59    1.03
  -1 -12  13    3.76    1.34
  -1  12 -14    9.10    1.74
   1 -12  14   10.90    1.71
  -1 -12  14   11.75    2.00
  -1 -12  15   18.59    2.61
   1 -12  15   15.88    2.15
   1 -12  16  232.20    8.79
  -1 -12  16  223.21    9.26
  -1 -12  17  169.83    8.16
   1 -12  17  173.22    7.76
  -1 -12  18   11.52    2.23
   1 -12  18    9.68    1.85
  -1 -12  19   96.30    6.23
   1 -12  19   90.53    5.96
  -1 -12  20  245.45   10.42
   1 -12  20  228.92    9.98
   1 -12  21   16.77    2.74
  -1 -12  21   19.53    2.92
  -1 -12  22   22.64    3.28
   1 -12  22   23.08    3.30
  -1 -12  23    0.13    0.79
   1 -12  23   -0.70    1.37
  -1 -12  24   23.00    3.59
   1 -12  24   20.50    3.17
   1 -12  25   15.59    2.89
  -1 -12  25   22.94    3.60
  -1 -12  26    1.04    0.91
   1 -12  26    0.42    1.01
  -1 -12  27    5.87    2.02
   1 -12  27    4.94    1.76
  -1 -12  28    2.04    1.57
   1 -12  28    2.22    1.07
  -1 -12  29    0.80    1.20
   1 -12  29    1.92    1.14
   1 -12  30   17.50    3.23
  -1 -12  30   17.49    3.55
  -1 -12  31  110.44    8.90
   1 -12  31  113.24    8.44
  -1 -12  32    7.42    2.77
   1 -12  32   17.93    3.52
  -1 -12  33  113.99    9.39
   1 -12  33  133.83    9.47
  -1 -12  34   22.07    4.28
   1 -12  34   30.74    4.67
   1 -12  35    3.31    2.03
  -1 -12  35    2.00    1.61
  -1 -12  36   12.13    3.40
   1 -12  36   13.65    3.37
   1 -12  37   19.95    3.72
  -1 -12  37   17.69    4.00
   1 -12  38   13.82    3.12
  -1 -12  38    7.76    2.53
   1 -12  39    4.11    1.99
   1 -12  40    2.15    1.42
   1 -13   0   -0.94    0.62
  -1 -13   0    0.29    0.68
  -1 -13   1   45.50    3.58
  -1 -13  -1   48.34    3.78
   1 -13  -1   47.10    3.00
   1 -13   1   49.14    2.97
  -1 -13  -2  229.73    8.64
   1 -13   2  226.65    7.10
   1 -13  -2  227.12    7.40
  -1 -13   2  225.50    8.43
  -1 -13   3  115.92    5.80
   1 -13   3  120.06    4.91
  -1 -13  -3  113.66    5.97
   1 -13  -3  120.90    5.26
  -1  13  -4   33.97    2.65
   1 -13   4   35.78    2.57
  -1 -13   4   37.61    3.26
   1 -13  -4   43.65    3.09
  -1 -13  -4   38.43    3.40
  -1 -13  -5    5.46    1.37
   1 -13   5    4.40    0.93
  -1 -13   5    2.55    0.92
  -1  13  -5    3.69    0.88
   1 -13   6   54.24    3.31
  -1 -13   6   52.53    3.87
  -1 -13  -6   58.15    4.28
  -1  13  -6   54.91    3.46
  -1  13  -7   23.61    2.28
   1 -13   7   25.47    2.28
  -1 -13   7   23.60    2.60
   1 -13   8   44.00    3.04
  -1 -13   8   40.28    3.48
  -1  13  -8   48.21    3.40
  -1  13  -9   14.21    1.86
   1 -13   9   14.24    1.77
  -1 -13   9   11.81    1.88
   1 -13  10    2.21    0.78
  -1 -13  10    2.02    1.02
  -1  13 -10    1.22    0.52
  -1 -13  11   50.21    3.96
   1 -13  11   52.08    3.47
  -1  13 -11   54.24    3.90
  -1 -13  12  136.22    6.79
   1 -13  12  134.71    5.90
  -1  13 -12  134.00    6.45
  -1 -13  13   81.46    5.26
  -1  13 -13   80.46    5.07
   1 -13  13   88.05    4.79
   1 -13  14  182.38    7.42
  -1 -13  14  200.15    8.58
  -1 -13  15    4.52    1.43
   1 -13  15    4.11    1.15
   1 -13  16   43.88    3.70
  -1 -13  16   44.95    4.13
  -1 -13  17   86.13    5.75
   1 -13  17   86.38    5.40
  -1 -13  18  155.58    7.98
   1 -13  18  149.59    7.46
  -1 -13  19   41.00    4.11
   1 -13  19   36.93    3.73
  -1 -13  20    4.99    1.58
   1 -13  20    4.96    1.55
   1 -13  21    9.05    2.00
  -1 -13  21    8.95    2.26
   1 -13  22    1.54    0.91
  -1 -13  22    6.89    1.96
  -1 -13  23    1.60    1.55
   1 -13  23    0.14    0.91
   1 -13  24   89.30    6.79
  -1 -13  24   87.95    6.67
  -1 -13  25   42.44    4.64
   1 -13  25   30.63    4.02
  -1 -13  26    6.68    2.23
   1 -13  26    6.62    2.02
  -1 -13  27   17.41    3.14
   1 -13  27   20.62    3.51
  -1 -13  28  195.67   11.10
   1 -13  28  188.07   10.94
   1 -13  29    2.15    1.40
  -1 -13  29    2.08    1.56
  -1 -13  30   -0.48    1.50
   1 -13  30   -1.14    1.09
   1 -13  31   41.71    5.22
  -1 -13  31   37.02    5.25
  -1 -13  32   85.87    8.05
   1 -13  32   85.37    7.54
   1 -13  33   31.50    4.64
  -1 -13  33   28.18    4.80
   1 -13  34    1.03    1.24
  -1 -13  34   -1.83    2.01
  -1 -13  35    1.77    1.99
   1 -13  35    1.11    1.25
  -1 -13  36    4.86    2.51
   1 -13  36    9.11    2.63
  -1 -13  37   -1.06    1.73
   1 -13  37    6.67    2.46
  -1 -13  38    6.79    1.86
   1 -13  38   12.68    3.07
   1 -13  39    8.19    2.61
   1 -13  40   16.11    3.73
   1 -14   0    0.23    0.57
  -1 -14   0    1.16    0.76
   1 -14   1    0.21    0.54
  -1 -14   1    0.26    0.61
   1 -14  -1    1.13    0.70
  -1 -14  -1    0.62    0.75
   1 -14   2   37.71    2.77
  -1 -14  -2   39.17    3.53
   1 -14  -2   40.64    2.98
  -1 -14   2   36.23    3.30
   1 -14  -3  120.96    5.47
  -1 -14   3  121.81    6.10
  -1 -14  -3  119.13    6.33
   1 -14   3  120.95    5.18
   1 -14  -4   14.01    1.87
  -1 -14  -4   12.21    2.20
   1 -14   4   11.61    1.52
  -1 -14   4   10.47    1.80
   1 -14   5   81.33    4.17
  -1 -14  -5   74.49    4.99
  -1 -14   5   70.98    4.65
  -1  14  -5   69.20    4.05
   1 -14  -5   75.88    4.35
  -1  14  -6   21.93    2.27
  -1 -14   6   22.56    2.57
  -1 -14  -6   20.52    2.62
   1 -14   6   24.03    2.25
  -1 -14  -7   67.32    4.75
  -1  14  -7   61.53    3.89
  -1 -14   7   61.73    4.38
   1 -14   7   64.91    3.76
  -1  14  -8   44.62    3.34
   1 -14   8   50.92    3.37
  -1 -14   8   41.59    3.64
   1 -14   9   68.33    3.95
  -1  14  -9   59.80    4.00
  -1 -14   9   67.60    4.69
  -1 -14  10  106.18    5.98
  -1  14 -10  113.92    5.78
   1 -14  10  119.87    5.49
  -1  14 -11  185.88    7.74
   1 -14  11  188.96    7.15
  -1 -14  11  194.36    8.33
  -1  14 -12   13.98    2.08
  -1 -14  12   16.97    2.35
   1 -14  12   13.38    1.89
   1 -14  13   11.41    1.86
  -1 -14  13    8.33    1.76
  -1 -14  14   99.89    6.03
   1 -14  14  100.96    5.42
   1 -14  15   68.51    4.54
  -1 -14  15   66.92    4.99
   1 -14  16   82.15    5.12
  -1 -14  16   78.07    5.57
   1 -14  17   16.96    2.44
  -1 -14  17   15.45    2.44
   1 -14  18  144.35    7.36
  -1 -14  18  154.28    8.07
   1 -14  19   10.52    2.00
  -1 -14  19    8.42    1.90
   1 -14  20    5.32    1.48
  -1 -14  20    4.17    1.56
   1 -14  21   72.36    5.60
  -1 -14  21   76.13    5.95
   1 -14  22   11.46    2.19
  -1 -14  22   12.10    2.60
  -1 -14  23   62.17    5.57
   1 -14  23   59.32    5.39
   1 -14  24   58.47    5.49
  -1 -14  24   72.39    6.07
   1 -14  25   37.29    4.56
  -1 -14  25   45.62    4.97
  -1 -14  26   42.04    4.92
   1 -14  26   37.09    4.56
   1 -14  27    6.46    1.97
  -1 -14  27    6.56    2.18
   1 -14  28   21.22    3.70
  -1 -14  28   21.89    3.84
  -1 -14  29   36.08    4.95
   1 -14  29   32.02    4.57
  -1 -14  30   11.63    2.80
   1 -14  30   17.45    3.60
   1 -14  31    9.19    2.57
  -1 -14  31    8.41    2.60
   1 -14  32  220.54   12.40
  -1 -14  32  205.84   12.70
  -1 -14  33   -0.07    1.88
   1 -14  33    1.87    1.92
  -1 -14  34    4.47    1.67
   1 -14  34    3.72    1.94
  -1 -14  35   36.83    5.72
   1 -14  35   42.67    5.65
   1 -14  36   51.77    6.18
  -1 -14  36   48.02    6.43
  -1 -14  37   30.58    5.22
   1 -14  37   34.04    4.95
   1 -14  38    3.91    2.03
   1 -14  39    5.86    2.30
  -1 -15   0    0.73    1.10
   1 -15   0    0.60    0.53
  -1 -15  -1  163.93    7.66
   1 -15  -1  162.76    6.50
  -1 -15   1  181.92    7.85
   1 -15   1  172.59    6.47
   1 -15  -2    5.84    1.23
  -1 -15  -2    3.76    1.22
  -1 -15   2    2.66    1.03
   1 -15   2    6.44    1.24
   1 -15   3   56.40    3.55
  -1 -15  -3   58.73    4.50
   1 -15  -3   67.02    4.08
  -1 -15   3   59.93    4.36
   1 -15   4  246.12    8.07
   1 -15  -4  250.06    8.64
  -1 -15  -4  251.32    9.79
  -1 -15   4  247.32    9.39
   1 -15   5  150.23    6.12
  -1 -15   5  151.64    7.18
  -1  15  -5  150.18    6.39
   1 -15  -5  158.30    6.72
  -1 -15  -5  159.62    7.67
  -1 -15  -6    3.08    1.24
  -1  15  -6    2.84    0.84
   1 -15   6    5.42    1.16
  -1 -15   6    3.21    1.06
   1 -15  -6    6.30    1.44
  -1 -15  -7  349.84   12.04
  -1  15  -7  351.22   10.77
  -1 -15   7  363.06   11.74
   1 -15   7  359.79   10.27
   1 -15   8    4.17    1.03
  -1 -15  -8    4.97    1.51
  -1 -15   8    3.61    1.29
  -1  15  -8    4.60    1.08
  -1 -15   9  120.53    6.49
   1 -15   9  114.25    5.43
  -1  15  -9  111.83    5.75
  -1  15 -10  111.52    5.93
   1 -15  10  124.04    5.78
  -1 -15  10  117.23    6.40
  -1 -15  11  267.74   10.15
  -1  15 -11  266.85    9.83
   1 -15  11  291.42    9.37
   1 -15  12   16.18    2.09
  -1 -15  12   16.68    2.50
  -1 -15  13   15.45    2.35
   1 -15  13   15.65    2.13
   1 -15  14   62.03    4.28
  -1 -15  14   57.61    4.72
   1 -15  15  171.38    7.49
  -1 -15  15  169.61    8.30
   1 -15  16    4.97    1.30
  -1 -15  16    4.15    1.52
  -1 -15  17    0.92    0.78
   1 -15  17    1.04    1.15
   1 -15  18  217.62    9.22
  -1 -15  18  231.77   10.16
   1 -15  19  136.75    7.31
  -1 -15  19  137.69    7.83
  -1 -15  20    2.82    1.71
   1 -15  20    2.43    1.13
  -1 -15  21  138.03    8.14
   1 -15  21  134.19    7.75
   1 -15  22    7.00    1.80
  -1 -15  22   12.89    2.72
   1 -15  23   62.55    5.56
  -1 -15  23   77.74    6.26
   1 -15  24    0.68    1.55
  -1 -15  24    2.47    1.42
  -1 -15  25   54.75    5.42
   1 -15  25   48.25    5.20
   1 -15  26   -1.70    1.42
  -1 -15  26    0.24    1.19
  -1 -15  27    0.60    1.24
   1 -15  27   -0.43    1.35
   1 -15  28   59.14    6.07
  -1 -15  28   73.15    6.81
  -1 -15  29   45.72    5.60
   1 -15  29   40.79    5.25
  -1 -15  30   22.87    3.95
   1 -15  30   27.76    4.36
  -1 -15  31   24.10    4.14
   1 -15  31   22.64    4.14
   1 -15  32   91.60    8.00
  -1 -15  32   76.88    7.60
   1 -15  33   30.47    4.57
  -1 -15  33   42.64    5.86
   1 -15  34   -2.21    2.02
  -1 -15  34   -0.48    1.84
   1 -15  35    7.84    2.65
  -1 -15  35    8.95    3.22
  -1 -15  36    4.70    2.24
   1 -15  36    9.49    3.01
  -1 -15  37   -1.10    2.12
   1 -15  37    3.64    2.03
   1 -15  38   -0.87    1.41
   1 -15  39    5.29    2.15
  -1 -16   0   -1.09    1.02
   1 -16   0   -0.25    0.67
  -1 -16   1   -0.30    0.96
   1 -16   1   -0.07    0.60
   1 -16  -1    0.40    0.65
  -1 -16  -1    0.33    0.93
   1 -16   2   20.17    2.21
  -1 -16  -2   20.03    2.75
   1 -16  -2   18.41    2.23
  -1 -16   2   20.38    2.62
  -1 -16  -3    3.21    0.85
  -1 -16   3    3.04    0.96
   1 -16   3    3.98    1.00
   1 -16  -3    2.70    0.91
  -1 -16   4  326.84   11.31
   1 -16   4  335.03   10.02
   1 -16  -4  332.21   10.54
  -1 -16  -4  358.58   12.15
  -1 -16  -5    5.01    1.48
   1 -16  -5    3.63    1.27
  -1 -16   5    6.49    1.61
   1 -16   5    3.37    1.04
  -1 -16  -6  362.42   12.61
   1 -16   6  381.71   10.92
   1 -16  -6  374.35   11.54
  -1  16  -6  363.40   11.24
  -1 -16   6  364.86   12.05
   1 -16   7   13.76    1.92
  -1 -16   7   12.71    2.13
   1 -16  -7   17.83    2.36
  -1  16  -7   12.19    1.85
  -1 -16  -7   16.74    2.67
  -1  16  -8  221.30    8.53
  -1 -16   8  211.22    8.90
  -1 -16  -8  214.31    9.44
   1 -16   8  222.52    7.97
  -1 -16   9   76.74    5.31
  -1 -16  -9   79.96    5.54
  -1  16  -9   77.21    4.91
   1 -16   9   83.45    4.71
   1 -16  10  392.50   11.44
  -1 -16  10  374.92   12.60
  -1 -16  11   13.89    2.30
   1 -16  11   13.31    1.84
   1 -16  12    6.01    1.39
  -1 -16  12    9.22    1.93
   1 -16  13   27.70    2.87
  -1 -16  13   25.35    3.18
   1 -16  14   81.08    5.01
  -1 -16  14   76.55    5.46
  -1 -16  15    6.56    1.68
   1 -16  15    9.97    1.89
  -1 -16  16    1.17    1.28
   1 -16  16    1.27    0.99
  -1 -16  17   38.18    4.03
   1 -16  17   44.14    3.99
   1 -16  18    9.58    2.10
  -1 -16  18   10.27    2.11
   1 -16  19   39.83    3.98
  -1 -16  19   34.92    4.01
   1 -16  20  295.54   11.64
  -1 -16  20  306.94   12.47
  -1 -16  21   13.04    2.68
   1 -16  21   14.25    2.66
   1 -16  22  176.16    9.20
  -1 -16  22  172.26    9.45
  -1 -16  23   71.01    6.12
   1 -16  23   68.70    5.81
  -1 -16  24   83.88    6.70
   1 -16  24   79.47    6.48
   1 -16  25    4.34    1.72
  -1 -16  25    3.96    1.85
   1 -16  26   25.97    3.83
  -1 -16  26   27.45    4.20
   1 -16  27   37.97    4.88
  -1 -16  27   42.56    5.00
   1 -16  28   25.56    4.00
  -1 -16  28   26.07    4.06
  -1 -16  29    2.03    1.43
   1 -16  29    7.30    2.27
   1 -16  30   24.49    4.20
  -1 -16  30   20.65    3.98
   1 -16  31   69.04    6.95
  -1 -16  31   74.10    7.36
   1 -16  32    8.67    2.70
  -1 -16  32    6.66    2.34
   1 -16  33   24.48    4.33
  -1 -16  33   29.58    4.82
   1 -16  34   55.88    6.26
  -1 -16  34   54.36    6.64
  -1 -16  35   12.83    3.27
   1 -16  35   15.12    3.44
  -1 -16  36  112.21   10.15
   1 -16  36  138.99   10.20
   1 -16  37   54.73    6.59
   1 -16  38   11.36    2.94
   1 -16  39    0.06    1.52
  -1 -17   0   -1.88    1.45
   1 -17   0   -0.59    0.79
  -1 -17   1  106.58    6.28
  -1 -17  -1  106.53    6.43
   1 -17  -1  107.23    5.43
   1 -17   1  107.50    5.44
   1 -17  -2  103.76    5.48
  -1 -17   2  100.77    6.11
  -1 -17  -2  113.54    6.55
   1 -17   2  104.84    5.36
   1 -17   3   22.22    2.41
   1 -17  -3   19.32    2.29
  -1 -17  -3   19.58    2.75
  -1 -17   3   14.04    2.15
   1 -17   4   54.60    3.81
  -1 -17   4   54.17    4.40
   1 -17  -4   58.38    4.10
  -1 -17  -4   54.80    4.59
   1 -17   5  334.77   10.33
   1 -17  -5  334.70   10.90
  -1 -17  -5  338.80   12.26
  -1 -17   5  321.77   11.57
   1 -17   6  575.53   14.65
  -1 -17   6  534.72   15.80
  -1 -17  -6  553.52   16.67
   1 -17  -6  570.82   15.27
   1 -17  -7  290.54   10.31
  -1  17  -7  272.28    9.93
  -1 -17  -7  302.29   11.58
  -1 -17   7  307.22   11.08
   1 -17   7  292.47    9.58
  -1 -17   8  280.78   10.74
  -1 -17  -8  284.94   11.35
   1 -17  -8  292.92   10.40
   1 -17   8  303.18    9.80
   1 -17   9  181.98    7.41
  -1 -17   9  192.93    8.75
  -1 -17  -9  187.08    8.98
  -1 -17  10   66.62    5.02
  -1 -17 -10   76.40    5.60
   1 -17  10   74.71    4.62
  -1 -17  11    0.55    0.73
   1 -17  11    0.62    0.57
   1 -17  12   48.56    3.83
  -1 -17  12   54.43    4.62
  -1 -17  13   34.98    3.77
   1 -17  13   33.38    3.24
   1 -17  14    2.63    1.22
  -1 -17  14    0.36    0.80
  -1 -17  15   13.36    2.44
   1 -17  15   12.81    2.04
   1 -17  16   66.38    4.77
  -1 -17  16   58.80    5.03
  -1 -17  17   56.27    4.98
   1 -17  17   56.03    4.52
   1 -17  18    0.96    1.09
  -1 -17  18    0.23    1.15
   1 -17  19  157.36    8.12
  -1 -17  19  172.07    9.06
   1 -17  20  269.45   11.05
  -1 -17  20  258.99   11.56
   1 -17  21  153.02    8.40
  -1 -17  21  157.80    9.00
  -1 -17  22   25.38    3.73
   1 -17  22   26.23    3.55
  -1 -17  23   42.23    4.85
   1 -17  23   38.97    4.41
  -1 -17  24   58.80    5.77
   1 -17  24   53.70    5.32
  -1 -17  25    6.66    2.28
   1 -17  25    3.86    1.41
   1 -17  26    2.24    0.99
  -1 -17  26    0.99    1.01
  -1 -17  27    2.21    1.65
   1 -17  27   -0.03    1.53
  -1 -17  28    1.78    1.33
   1 -17  28   -0.34    1.44
   1 -17  29    0.50    1.30
  -1 -17  29   -0.13    1.22
   1 -17  30   14.06    3.13
  -1 -17  30    7.87    2.67
   1 -17  31   71.22    7.16
  -1 -17  31   69.70    7.22
   1 -17  32    9.21    2.64
  -1 -17  32    6.19    2.35
  -1 -17  33   36.58    5.45
   1 -17  33   30.49    4.82
   1 -17  34   40.26    5.42
  -1 -17  34   33.20    5.28
   1 -17  35   59.75    6.72
  -1 -17  35   69.26    7.82
  -1 -17  36    0.52    1.27
   1 -17  36    1.30    1.75
   1 -17  37    6.89    2.78
   1 -17  38    0.03    1.51
  -1 -18   0   -1.16    1.30
   1 -18   0   -0.37    0.91
   1 -18  -1    7.58    1.52
  -1 -18   1    6.03    1.45
   1 -18   1    8.28    1.51
  -1 -18  -1    8.40    1.96
   1 -18  -2   65.21    4.36
  -1 -18   2   63.56    4.89
   1 -18   2   56.57    4.03
  -1 -18  -2   62.17    5.01
   1 -18   3   30.85    2.91
  -1 -18   3   30.76    3.45
   1 -18  -3   31.23    3.06
  -1 -18  -3   32.80    3.59
   1 -18   4   34.97    3.09
  -1 -18  -4   35.24    3.77
   1 -18  -4   28.54    3.01
  -1 -18   4   38.88    3.74
   1 -18   5  218.00    8.30
  -1 -18   5  231.58    9.75
   1 -18  -5  236.39    9.06
  -1 -18  -5  222.50    9.91
  -1 -18   6   21.47    2.91
   1 -18  -6   21.71    2.77
   1 -18   6   25.02    2.69
  -1 -18  -6   21.45    3.10
  -1 -18   7  282.73   11.02
   1 -18  -7  300.77   10.63
  -1 -18  -7  282.86   11.57
   1 -18   7  296.00    9.89
  -1 -18   8   42.06    3.99
   1 -18   8   46.79    3.67
   1 -18  -8   43.16    3.88
  -1 -18  -8   53.16    4.77
  -1 -18   9  204.75    9.20
   1 -18  -9  177.28    8.16
  -1 -18  -9  176.53    8.90
   1 -18   9  184.08    7.64
  -1 -18 -10    0.62    0.73
  -1 -18  10    1.84    1.08
   1 -18  10    0.68    0.81
   1 -18  11  116.20    6.12
  -1 -18  11  126.78    7.15
  -1 -18 -11  117.63    7.32
   1 -18  12    4.47    1.21
  -1 -18  12    8.73    1.98
   1 -18  13   13.05    2.02
  -1 -18  13   12.59    2.25
   1 -18  14    1.67    1.19
  -1 -18  14   -0.23    1.02
  -1 -18  15    1.56    1.04
   1 -18  15    2.17    1.27
   1 -18  16   25.19    3.06
  -1 -18  16   30.95    3.64
   1 -18  17    0.71    0.74
  -1 -18  17    0.25    0.96
   1 -18  18   12.99    2.38
  -1 -18  18   13.60    2.61
   1 -18  19   72.47    5.51
  -1 -18  19   73.15    5.91
   1 -18  20   62.17    5.18
  -1 -18  20   65.51    5.80
  -1 -18  21  254.64   11.83
   1 -18  21  247.95   10.98
   1 -18  22   69.66    5.81
  -1 -18  22   78.10    6.45
  -1 -18  23  115.83    8.01
   1 -18  23  102.64    7.20
  -1 -18  24   55.63    5.66
   1 -18  24   54.99    5.41
  -1 -18  25   62.99    6.06
   1 -18  25   59.36    5.72
  -1 -18  26   38.43    4.78
   1 -18  26   38.80    4.78
   1 -18  27   -1.81    1.36
  -1 -18  27   -0.59    1.10
  -1 -18  28   23.82    4.04
   1 -18  28   24.72    3.95
  -1 -18  29    7.73    2.49
   1 -18  29    5.48    2.02
  -1 -18  30    8.19    2.82
   1 -18  30    1.30    1.40
  -1 -18  31   -2.05    1.95
   1 -18  31    0.37    1.67
  -1 -18  32    9.57    2.55
   1 -18  32    9.28    2.70
   1 -18  33    3.40    1.90
  -1 -18  33    5.55    1.92
  -1 -18  34    1.91    1.70
   1 -18  34    4.76    2.43
   1 -18  35   90.23    8.20
  -1 -18  35   85.03    8.70
  -1 -19   0   -0.49    0.99
   1 -19   0   -0.68    0.96
   1 -19  -1   14.44    2.12
  -1 -19  -1   10.19    2.03
  -1 -19   1   11.57    2.20
   1 -19   1   14.05    2.06
  -1 -19  -2   33.73    3.74
   1 -19   2   31.17    3.08
  -1 -19   2   30.21    3.47
   1 -19  -2   32.13    3.17
  -1 -19  -3  127.63    7.49
   1 -19  -3  123.99    6.40
   1 -19   3  132.76    6.42
  -1 -19   3  127.45    7.20
  -1 -19  -4   80.05    5.83
   1 -19   4   73.64    4.76
  -1 -19   4   81.04    5.69
   1 -19  -4   78.15    5.07
   1 -19   5    9.02    1.78
  -1 -19  -5    9.97    2.25
  -1 -19   5    7.65    2.03
   1 -19  -5    9.66    1.78
   1 -19   6  602.85   15.58
  -1 -19  -6  557.41   17.33
   1 -19  -6  540.03   15.64
  -1 -19   6  559.39   16.65
   1 -19  -7   25.25    3.03
  -1 -19   7   27.32    3.29
  -1 -19  -7   28.90    3.58
   1 -19   7   28.10    2.96
  -1 -19   8  395.10   13.53
  -1 -19  -8  402.48   14.30
   1 -19  -8  392.46   12.98
   1 -19   8  400.63   12.22
  -1 -19   9  132.66    7.55
   1 -19  -9  137.86    7.27
  -1 -19  -9  123.61    7.55
   1 -19   9  136.73    6.64
  -1 -19 -10   17.56    2.87
  -1 -19  10   22.98    3.09
   1 -19 -10   18.16    2.56
   1 -19  10   18.75    2.49
   1 -19  11   69.67    4.76
  -1 -19  11   71.24    5.45
  -1 -19 -11   71.07    5.78
  -1 -19  12   59.93    5.04
  -1 -19 -12   57.20    5.20
   1 -19  12   57.40    4.38
   1 -19  13   10.27    1.80
  -1 -19  13   10.84    2.12
  -1 -19  14    2.16    1.25
   1 -19  14    4.33    1.46
   1 -19  15   10.04    2.01
  -1 -19  15   12.27    2.37
  -1 -19  16    0.77    0.94
   1 -19  16    2.94    1.35
  -1 -19  17  120.53    7.56
   1 -19  17  122.83    7.05
  -1 -19  18   89.59    6.55
   1 -19  18  100.72    6.42
  -1 -19  19   16.05    3.05
   1 -19  19   21.60    3.18
  -1 -19  20  332.74   13.59
   1 -19  20  320.79   12.54
  -1 -19  21    5.06    2.09
   1 -19  21    2.84    1.70
   1 -19  22  141.19    8.37
  -1 -19  22  133.98    8.65
   1 -19  23  168.79    9.46
  -1 -19  23  171.44    9.91
  -1 -19  24    1.45    1.50
   1 -19  24    0.17    1.18
  -1 -19  25    8.68    2.61
   1 -19  25    3.14    1.28
   1 -19  26   19.16    3.53
  -1 -19  26   16.19    3.22
   1 -19  27   10.77    2.59
  -1 -19  27   14.51    3.06
  -1 -19  28    3.10    1.75
   1 -19  28    1.12    1.03
   1 -19  29   13.76    2.98
  -1 -19  29   16.48    3.48
   1 -19  30   10.19    2.54
  -1 -19  30   11.79    3.05
  -1 -19  31   21.60    4.14
   1 -19  31   15.50    3.46
   1 -19  32   51.82    6.22
  -1 -19  32   52.69    6.46
   1 -19  33    5.27    2.04
  -1 -19  33   13.01    3.28
  -1 -19  34   69.54    7.65
  -1 -20   0   -1.20    1.33
   1 -20   0   -0.37    1.12
   1 -20  -1  103.15    5.93
   1 -20   1  102.44    5.82
  -1 -20   1  100.90    6.67
  -1 -20  -1  107.43    6.86
  -1 -20  -2   23.35    3.25
   1 -20   2   19.56    2.54
   1 -20  -2   19.80    2.52
  -1 -20   2   17.69    2.75
   1 -20   3   17.66    2.45
  -1 -20  -3   22.94    3.20
   1 -20  -3   18.55    2.54
  -1 -20   3   18.26    2.82
   1 -20   4    7.41    1.57
  -1 -20  -4    6.94    1.86
  -1 -20   4    8.15    1.99
   1 -20  -4    5.28    1.40
   1 -20   5  131.41    6.56
   1 -20  -5  116.96    6.53
  -1 -20   5  120.31    7.14
  -1 -20  -5  118.60    7.37
  -1 -20   6  125.20    7.33
   1 -20   6  127.80    6.61
  -1 -20  -6  129.46    7.77
   1 -20  -6  127.73    6.90
  -1 -20   7   96.66    6.45
  -1 -20  -7   99.75    6.90
   1 -20  -7  100.57    6.17
   1 -20   7  105.85    5.92
   1 -20  -8  252.79   10.27
  -1 -20   8  250.76   10.72
   1 -20   8  258.48    9.68
  -1 -20  -8  257.36   11.41
  -1 -20   9    8.65    2.12
   1 -20   9    8.24    1.80
   1 -20  -9   10.52    2.10
  -1 -20  -9    9.20    2.22
   1 -20  10   15.81    2.21
   1 -20 -10   13.15    2.35
  -1 -20 -10   16.91    2.87
  -1 -20  10   20.69    3.02
  -1 -20 -11    0.75    1.00
   1 -20  11   -0.29    0.93
  -1 -20  11    0.56    0.78
   1 -20 -11    1.63    1.01
   1 -20  12   -0.23    1.04
  -1 -20 -12   -0.53    0.82
  -1 -20  12    0.79    1.07
  -1 -20  13    5.96    1.71
  -1 -20 -13    7.39    1.98
   1 -20  13    9.10    1.92
  -1 -20  14   17.30    2.82
   1 -20  14   15.80    2.36
  -1 -20 -14   14.71    2.67
   1 -20  15   36.22    3.76
  -1 -20  15   37.27    4.15
   1 -20  16    5.28    1.66
  -1 -20  16    5.73    2.08
  -1 -20  17   39.61    4.40
   1 -20  17   30.48    3.49
  -1 -20  18   29.42    3.89
   1 -20  18   29.63    3.54
   1 -20  19   94.74    6.44
  -1 -20  19   99.39    7.21
   1 -20  20   30.37    3.67
  -1 -20  20   23.71    3.63
  -1 -20  21   86.24    6.82
   1 -20  21   76.89    6.04
  -1 -20  22   91.84    7.24
   1 -20  22   88.86    6.65
   1 -20  23    6.11    2.01
  -1 -20  23   11.39    2.86
  -1 -20  24   51.31    5.61
   1 -20  24   55.44    5.53
   1 -20  25    4.05    1.63
  -1 -20  25    2.47    1.42
  -1 -20  26   -1.21    1.93
   1 -20  26   -0.19    1.54
   1 -20  27   17.73    3.20
  -1 -20  27   21.71    3.82
   1 -20  28    1.74    1.70
  -1 -20  28    1.89    1.63
  -1 -20  29    1.43    1.39
   1 -20  29    2.12    1.26
  -1 -20  30    4.74    1.99
  -1 -20  31   -3.05    2.25
  -1 -20  32    4.52    1.96
  -1 -20  33   11.09    3.39
  -1 -20  34   17.21    3.95
   1 -21   0    0.31    0.63
  -1 -21   0   -1.20    1.42
  -1 -21   1    2.95    1.31
   1 -21  -1    4.61    1.33
   1 -21   1    2.28    0.92
  -1 -21  -1    5.88    1.52
   1 -21  -2   28.50    3.21
  -1 -21  -2   27.16    3.57
   1 -21   2   23.94    2.88
  -1 -21   2   27.27    3.46
   1 -21   3   10.62    1.91
   1 -21  -3   10.18    1.98
  -1 -21  -3   10.95    2.16
  -1 -21   3   11.63    2.33
  -1 -21   4  147.29    8.20
   1 -21   4  146.19    7.18
   1 -21  -4  143.93    7.45
  -1 -21  -4  147.32    8.45
  -1 -21   5   23.72    3.20
   1 -21   5   20.32    2.70
   1 -21  -5   19.72    2.71
  -1 -21  -5   17.83    2.97
  -1 -21   6  120.44    7.33
   1 -21   6  126.24    6.67
   1 -21  -6  112.61    6.59
  -1 -21  -6  113.73    7.43
   1 -21  -7  361.34   12.76
  -1 -21  -7  375.26   14.20
   1 -21   7  378.73   12.28
  -1 -21   7  363.25   13.50
   1 -21  -8  286.87   11.20
  -1 -21  -8  269.78   11.98
  -1 -21   8  284.30   11.78
   1 -21   8  280.64   10.39
  -1 -21   9    4.98    1.71
   1 -21  -9    6.97    1.94
  -1 -21  -9    4.99    1.94
   1 -21   9    5.62    1.59
  -1 -21  10  177.84    9.05
   1 -21  10  173.52    8.07
  -1 -21 -10  162.27    9.18
   1 -21 -10  185.64    8.97
   1 -21 -11    5.43    1.60
  -1 -21 -11    5.78    1.77
   1 -21  11    6.45    1.64
  -1 -21  11   12.31    2.44
   1 -21  12    1.09    0.75
   1 -21 -12    2.21    1.25
  -1 -21 -12    1.57    1.21
  -1 -21  12    3.25    1.53
  -1 -21  13    6.43    1.79
  -1 -21 -13    7.11    2.04
   1 -21  13    6.56    1.54
  -1 -21 -14   14.97    2.93
  -1 -21  14   24.05    3.46
   1 -21  14   17.57    2.61
   1 -21  15    2.13    1.24
  -1 -21 -15    0.39    0.85
  -1 -21  15    0.67    0.87
   1 -21  16   78.69    5.70
  -1 -21  16   79.04    6.29
   1 -21  17    1.77    1.34
  -1 -21  17   -0.03    1.00
  -1 -21  18   49.41    5.02
   1 -21  18   60.28    5.12
  -1 -21  19   87.88    6.91
   1 -21  19   93.60    6.54
   1 -21  20   21.75    3.23
  -1 -21  20   22.30    3.69
   1 -21  21  119.65    7.69
  -1 -21  21  139.20    8.91
  -1 -21  22  214.59   11.30
   1 -21  22  202.15   10.36
   1 -21  23   24.60    3.62
  -1 -21  23   25.65    4.09
   1 -21  24  104.40    7.64
  -1 -21  24  116.49    8.51
   1 -21  25    0.60    1.17
  -1 -21  25   -1.14    0.98
  -1 -21  26   18.72    3.58
   1 -21  26   16.53    3.20
  -1 -21  27    1.58    1.70
  -1 -21  28   41.41    5.38
  -1 -21  29   -1.96    1.78
  -1 -21  30   27.96    4.57
  -1 -21  31   -0.44    2.08
  -1 -21  32   -0.19    1.83
  -1 -21  33   68.00    7.53
  -1 -22   0   -1.60    1.42
   1 -22   0   -0.44    0.78
  -1 -22  -1   12.92    2.63
   1 -22  -1   12.84    2.25
   1 -22   1    8.15    1.75
  -1 -22   1   14.96    2.44
   1 -22   2   71.26    5.11
  -1 -22   2   76.08    5.96
  -1 -22  -2   81.47    6.30
   1 -22  -2   84.13    5.61
   1 -22   3    0.53    0.81
   1 -22  -3    2.03    1.13
  -1 -22   3    0.89    0.91
  -1 -22  -3    1.36    1.02
   1 -22  -4    2.56    1.17
  -1 -22   4    2.54    1.36
  -1 -22  -4    1.89    1.48
   1 -22   4    2.93    1.41
   1 -22   5    1.00    0.68
  -1 -22   5    1.06    1.08
   1 -22  -5    1.11    0.96
  -1 -22  -5    5.39    1.84
   1 -22   6  311.25   11.27
   1 -22  -6  311.19   11.76
  -1 -22  -6  300.83   12.99
  -1 -22   6  309.27   12.52
   1 -22   7  183.56    8.37
   1 -22  -7  184.61    8.90
  -1 -22   7  189.88    9.54
  -1 -22  -7  186.67    9.96
   1 -22  -8  319.05   12.11
  -1 -22  -8  309.90   13.17
  -1 -22   8  325.07   12.93
   1 -22   8  327.22   11.61
   1 -22   9   31.45    3.34
   1 -22  -9   28.74    3.55
  -1 -22   9   33.31    3.93
  -1 -22  -9   34.93    4.46
   1 -22 -10    2.22    1.29
  -1 -22  10    2.18    1.56
   1 -22  10    1.33    0.98
  -1 -22 -10    3.91    1.78
  -1 -22 -11   12.26    2.61
   1 -22  11   10.58    1.92
  -1 -22  11   11.34    2.32
   1 -22 -11    5.88    1.57
  -1 -22 -12   62.71    5.77
   1 -22  12   60.07    4.78
   1 -22 -12   58.58    5.16
  -1 -22  12   58.78    5.32
  -1 -22  13    2.11    1.22
  -1 -22 -13    2.73    1.31
   1 -22  13    2.04    0.77
   1 -22 -13    1.94    1.04
   1 -22 -14   17.69    3.08
  -1 -22 -14   12.91    2.72
   1 -22  14   17.18    2.59
  -1 -22  14   17.56    2.99
  -1 -22 -15   -0.40    0.96
   1 -22  15    1.73    1.15
  -1 -22  15    1.02    1.12
  -1 -22 -16   72.12    6.49
   1 -22  16   65.49    5.29
  -1 -22  16   63.59    5.70
  -1 -22  17   35.70    4.34
   1 -22  17   35.03    3.88
  -1 -22 -17   24.82    3.89
  -1 -22  18    4.65    1.53
   1 -22  18    6.32    1.75
   1 -22  19    2.47    1.33
  -1 -22  19    3.99    2.06
   1 -22  20  107.37    7.23
  -1 -22  20  115.70    8.16
   1 -22  21   47.72    4.84
  -1 -22  21   45.64    5.24
   1 -22  22   83.91    6.62
  -1 -22  22   84.84    7.20
  -1 -22  23   45.13    5.25
  -1 -22  24    6.94    2.64
  -1 -22  25    1.03    1.59
  -1 -22  26    2.21    1.37
  -1 -22  27   10.29    2.84
  -1 -22  28   13.02    3.16
  -1 -22  29    5.52    2.46
  -1 -22  30   24.03    4.36
  -1 -22  31    1.66    1.42
  -1 -22  32    0.83    1.52
  -1 -23   0   -0.32    1.55
   1 -23   0   -0.10    1.07
   1 -23   1   75.11    5.35
   1 -23  -1   69.34    5.21
  -1 -23  -1   60.15    5.51
  -1 -23   1   70.24    5.83
  -1 -23  -2    2.02    1.34
   1 -23  -2    0.19    0.83
   1 -23   2    0.05    0.79
  -1 -23   2    2.92    1.37
   1 -23   3   75.42    5.34
   1 -23  -3   76.73    5.55
  -1 -23  -3   82.41    6.46
  -1 -23   3   73.07    5.93
   1 -23   4   21.88    2.91
  -1 -23   4   21.59    3.25
   1 -23  -4   23.19    3.16
  -1 -23  -4   17.89    3.10
  -1 -23  -5   57.18    5.52
   1 -23   5   61.43    4.85
  -1 -23   5   65.95    5.68
   1 -23  -5   56.67    4.77
  -1 -23   6    9.24    2.47
   1 -23   6    7.31    1.78
   1 -23  -6    4.18    1.66
  -1 -23  -6    7.55    2.44
   1 -23   7  155.89    7.77
  -1 -23   7  159.69    8.88
  -1 -23  -7  145.20    8.84
   1 -23  -7  147.04    8.06
  -1 -23   8    6.09    2.26
   1 -23  -8    4.74    1.63
  -1 -23  -8    3.76    2.22
   1 -23   8    4.65    1.55
   1 -23  -9   67.70    5.40
  -1 -23   9   75.57    6.01
  -1 -23  -9   68.14    6.10
   1 -23   9   68.83    5.13
  -1 -23  10   76.83    6.12
   1 -23  10   80.51    5.58
   1 -23 -10   68.14    5.53
  -1 -23 -10   69.45    6.23
   1 -23  11   89.77    6.03
   1 -23 -11   85.40    6.29
  -1 -23 -11   91.11    7.10
  -1 -23  11   96.67    6.95
   1 -23  12    0.60    0.83
  -1 -23 -12    3.90    1.72
   1 -23 -12    3.74    1.74
  -1 -23  12    5.26    1.82
   1 -23 -13   -0.85    0.98
  -1 -23 -13    1.37    1.46
   1 -23  13   -0.59    0.71
  -1 -23  13    0.19    1.12
   1 -23 -14   22.21    3.48
  -1 -23  14   25.00    3.58
  -1 -23 -14   24.58    3.86
   1 -23  14   19.19    2.86
  -1 -23 -15   94.40    7.54
   1 -23  15   95.72    6.41
  -1 -23  15   94.34    7.05
   1 -23 -15   86.59    6.62
  -1 -23 -16    7.04    2.54
   1 -23  16    5.00    1.74
   1 -23 -16    4.90    1.93
  -1 -23  16    6.37    2.14
  -1 -23  17   18.02    3.12
   1 -23  17   16.33    2.79
  -1 -23 -17   13.43    2.94
  -1 -23  18    6.60    1.95
  -1 -23 -18    5.26    1.95
  -1 -23 -19   21.61    3.77
  -1 -23  19   28.67    4.06
  -1 -23  20   11.18    2.94
  -1 -23  21  131.19    8.91
  -1 -23  22   61.31    6.18
  -1 -23  23   64.61    6.34
  -1 -23  24   23.55    3.96
  -1 -23  25   36.46    5.04
  -1 -23  26    7.54    2.63
  -1 -23  27   15.70    3.24
  -1 -23  28   33.58    4.96
  -1 -23  29   54.59    6.47
  -1 -23  30    5.31    2.51
  -1 -23  31    2.56    1.90
   1 -24   0   -0.82    0.94
  -1 -24   0   -0.46    1.18
  -1 -24  -1   15.01    2.80
  -1 -24   1    9.91    2.26
   1 -24  -1   16.13    2.57
   1 -24   1   12.94    2.24
   1 -24  -2   -0.67    1.13
  -1 -24  -2    1.82    1.52
   1 -24   2   -0.30    1.18
  -1 -24   2    1.63    1.31
  -1 -24   3   72.55    6.09
   1 -24  -3   80.70    5.81
   1 -24   3   78.21    5.60
  -1 -24  -3   75.26    6.39
  -1 -24  -4    4.03    1.78
   1 -24  -4    0.30    0.78
  -1 -24   4    0.61    0.98
   1 -24   4    3.37    1.40
   1 -24  -5    1.66    0.97
  -1 -24   5    2.38    1.18
  -1 -24  -5    1.77    1.66
   1 -24   5   -0.17    1.02
  -1 -24   6   41.74    4.63
   1 -24   6   40.66    3.98
  -1 -24  -6   43.06    4.93
   1 -24  -6   42.06    4.31
  -1 -24   7  317.96   13.32
   1 -24  -7  325.23   12.73
  -1 -24  -7  343.57   14.32
   1 -24   7  342.70   12.32
   1 -24   8   27.32    3.28
   1 -24  -8   24.75    3.34
  -1 -24   8   33.26    4.15
  -1 -24  -8   33.33    4.38
   1 -24  -9   23.40    3.25
  -1 -24  -9   26.06    3.88
   1 -24   9   22.49    2.98
  -1 -24   9   28.80    3.87
  -1 -24  10    0.17    1.14
  -1 -24 -10    1.81    1.27
   1 -24 -10    0.21    0.93
   1 -24  10    2.05    1.27
  -1 -24 -11  113.11    8.13
   1 -24  11  127.25    7.33
   1 -24 -11  119.26    7.64
  -1 -24  11  128.01    8.12
   1 -24  12   12.04    2.41
  -1 -24 -12    7.17    2.23
   1 -24 -12    6.86    1.70
  -1 -24  12    9.22    2.31
  -1 -24 -13   -0.14    1.05
  -1 -24  13    0.27    1.05
   1 -24 -13    0.90    1.03
  -1 -24 -14    1.88    1.80
  -1 -24  14    0.06    0.99
   1 -24 -14    1.93    1.19
   1 -24 -15   84.65    6.68
  -1 -24 -15   87.41    7.35
  -1 -24  15   87.98    6.94
  -1 -24  16    0.90    1.30
  -1 -24 -16    3.53    2.11
   1 -24 -16    0.15    1.15
  -1 -24  17    4.64    1.69
  -1 -24 -17    4.64    1.86
   1 -24 -17    4.36    1.72
  -1 -24 -18   17.94    3.42
  -1 -24  18   13.26    2.88
  -1 -24 -19    6.44    2.33
  -1 -24  19    8.64    2.51
  -1 -24  20   22.21    3.80
  -1 -24 -20   23.73    4.23
  -1 -24  21   54.95    5.89
  -1 -24 -21   55.63    6.33
  -1 -24  22    5.41    2.18
  -1 -24  23   15.06    3.18
  -1 -24  24    2.36    1.91
  -1 -24  25   21.78    4.00
  -1 -24  26    6.88    2.46
  -1 -24  27    1.59    1.69
  -1 -24  28    0.64    1.31
  -1 -24  29   51.60    6.34
  -1 -24  30    4.96    2.56
   1 -25   0    1.84    1.03
  -1 -25   0    0.41    1.02
  -1 -25  -1    9.72    2.37
   1 -25   1    8.51    1.71
  -1 -25   1    9.49    2.41
   1 -25  -1    7.51    1.93
   1 -25   2   76.95    5.70
  -1 -25   2   75.41    6.34
   1 -25  -2   74.59    5.70
  -1 -25  -2   73.25    6.40
  -1 -25  -3   16.74    3.26
   1 -25   3   22.34    3.07
   1 -25  -3   19.61    2.91
  -1 -25   3   16.17    3.02
   1 -25   4   14.09    2.39
   1 -25  -4   12.86    2.45
  -1 -25   4   13.93    2.85
  -1 -25  -4   13.47    2.74
   1 -25  -5    3.06    1.26
  -1 -25  -5    5.71    1.85
  -1 -25   5    2.55    1.42
   1 -25   5    2.90    1.00
  -1 -25   6    5.86    1.79
  -1 -25  -6   10.40    2.65
   1 -25  -6    7.73    1.71
  -1 -25   7    3.03    1.75
   1 -25  -7    1.40    1.38
  -1 -25  -7    2.32    1.45
  -1 -25   8   -0.09    1.60
   1 -25  -8    1.77    0.85
  -1 -25  -8    1.32    1.11
   1 -25  -9   34.86    4.07
  -1 -25  -9   32.03    4.34
  -1 -25   9   31.53    3.96
  -1 -25  10   19.51    3.16
  -1 -25 -10   23.22    3.93
   1 -25 -10   18.59    2.86
  -1 -25  11   23.25    3.70
   1 -25 -11   15.24    2.81
  -1 -25 -11   18.10    3.65
  -1 -25 -12  102.53    8.01
   1 -25 -12   99.03    7.10
  -1 -25  12  110.79    7.73
   1 -25 -13    2.62    1.73
  -1 -25  13    2.69    1.57
  -1 -25 -13    2.85    1.68
   1 -25 -14   15.61    2.99
  -1 -25 -14   12.80    3.08
  -1 -25  14    9.73    2.35
  -1 -25 -15   34.07    4.73
   1 -25 -15   30.70    4.19
  -1 -25  15   37.46    4.53
   1 -25 -16   37.69    4.56
  -1 -25  16   36.98    4.66
  -1 -25 -16   41.95    5.14
   1 -25 -17    0.83    0.94
  -1 -25 -17    2.50    1.65
  -1 -25  17    3.70    1.79
  -1 -25  18    3.03    1.76
  -1 -25 -18    3.99    1.53
   1 -25 -18    2.25    1.00
  -1 -25  19    1.88    1.59
  -1 -25 -19    0.35    1.39
   1 -25 -19    0.09    1.40
  -1 -25 -20   13.98    3.20
   1 -25 -20   18.01    3.47
  -1 -25  20   16.64    3.22
  -1 -25  21    3.41    1.91
  -1 -25 -21   -1.23    1.50
  -1 -25  22    4.70    2.19
  -1 -25 -22    1.38    1.14
  -1 -25  23   36.49    4.87
  -1 -25 -23   46.05    6.23
  -1 -25  24   17.95    3.72
  -1 -25  25    4.74    2.13
  -1 -25  26   26.35    4.45
  -1 -25  27   18.39    3.71
  -1 -25  28    4.67    2.18
  -1 -26   0   -0.58    1.24
  -1 -26   1   14.97    2.94
  -1 -26  -1   14.03    2.84
  -1 -26   2   41.81    4.78
  -1 -26  -2   44.25    5.11
  -1 -26   3    1.22    1.57
  -1 -26  -3   -2.47    1.72
  -1 -26   4   44.75    4.88
  -1 -26  -4   43.24    4.97
  -1 -26  -5   14.66    2.80
  -1 -26   5   13.87    2.86
  -1 -26   6    4.06    1.64
  -1 -26  -6    4.70    1.90
   1 -26  -6    4.00    1.45
  -1 -26   7    2.77    1.30
   1 -26  -7    1.94    0.93
  -1 -26  -7    2.93    1.00
  -1 -26  -8    6.00    1.94
   1 -26  -8    1.93    1.07
  -1 -26   8    3.16    1.18
  -1 -26  -9    7.77    2.24
  -1 -26   9    4.82    1.50
   1 -26  -9    8.54    2.27
   1 -26 -10   57.56    5.36
  -1 -26  10   66.95    6.03
  -1 -26 -10   61.82    6.13
  -1 -26  11    3.62    1.86
   1 -26 -11    2.44    1.22
  -1 -26 -11    0.09    1.17
   1 -26 -12   38.20    4.42
  -1 -26 -12   40.55    5.02
  -1 -26  12   36.97    4.65
   1 -26 -13   12.43    2.57
  -1 -26 -13   12.42    2.80
  -1 -26  13   10.89    2.51
  -1 -26  14   32.39    4.25
   1 -26 -14   25.35    3.78
  -1 -26 -14   21.17    3.82
   1 -26 -15    1.01    1.32
  -1 -26  15    2.30    1.46
  -1 -26 -15    0.50    1.33
  -1 -26 -16   37.71    5.15
   1 -26 -16   44.28    5.08
  -1 -26  16   46.17    5.31
  -1 -26 -17    0.00    1.20
  -1 -26  17    0.33    1.51
   1 -26 -17    0.31    0.92
  -1 -26  18    4.40    1.76
  -1 -26 -18    3.69    1.54
   1 -26 -18    4.52    1.74
   1 -26 -19   10.32    2.27
  -1 -26  19   13.41    2.96
  -1 -26 -19   15.55    3.45
  -1 -26 -20   -1.72    1.70
   1 -26 -20   -0.32    1.01
  -1 -26  20    2.30    1.84
  -1 -26 -21    3.00    1.40
  -1 -26  21    7.84    2.54
   1 -26 -21    4.77    2.15
  -1 -26 -22   -2.82    2.02
   1 -26 -22    1.04    1.58
  -1 -26  22   -0.10    1.30
  -1 -26  23   31.44    4.61
  -1 -26 -23   27.49    4.75
  -1 -26  24   18.78    3.73
  -1 -26 -24   15.71    3.81
  -1 -27   0   -1.48    1.58
  -1 -27   1   21.87    3.79
  -1 -27  -1   23.88    3.84
  -1 -27   2  123.29    8.50
  -1 -27  -2  126.89    8.73
  -1 -27   3   41.40    4.90
  -1 -27  -3   38.10    4.82
  -1 -27  -4    3.37    1.46
  -1 -27   4    5.29    1.92
  -1 -27   5   -0.78    1.27
  -1 -27  -5    1.96    1.34
  -1 -27  -6   15.82    3.36
  -1 -27   6   17.01    3.16
  -1 -27   7    3.20    1.50
  -1 -27  -7    4.53    1.94
  -1 -27  -8   15.35    3.37
  -1 -27   8   15.76    3.04
  -1 -27   9   -1.05    0.96
  -1 -27  -9    0.88    1.49
  -1 -27 -10    3.51    1.56
  -1 -27  10    4.87    1.69
  -1 -27 -11   46.03    5.43
  -1 -27  11   44.11    5.09
  -1 -27  12   63.04    6.04
  -1 -27 -12   65.39    6.58
  -1 -27  13   10.32    2.56
  -1 -27 -13    9.94    2.63
  -1 -27 -14   11.73    2.79
  -1 -27  14   13.81    2.88
  -1 -27 -15   17.73    3.66
  -1 -27  15   12.46    2.80
  -1 -27  16   41.57    5.10
  -1 -27 -16   34.97    5.08
  -1 -27 -17    6.18    2.02
  -1 -27  17   11.67    2.81
  -1 -27 -18    9.44    2.81
  -1 -27  18   10.03    2.81
  -1 -27 -19   -1.35    1.41
  -1 -27  19    2.04    1.62
  -1 -27 -20   10.36    2.79
  -1 -27  20    8.30    2.51
  -1 -27 -21    1.13    1.68
  -1 -27 -22    0.62    1.55
  -1 -28   0   -0.58    1.34
  -1 -28  -1   32.93    4.60
  -1 -28   1   31.46    4.41
  -1 -28   2    1.64    1.75
  -1 -28  -2    4.25    2.04
  -1 -28  -3   71.62    6.66
  -1 -28   3   65.51    6.30
  -1 -28   4    3.98    2.01
  -1 -28  -4    5.37    1.89
  -1 -28   5   13.13    2.82
  -1 -28  -5    8.99    2.30
  -1 -28  -6   13.59    2.85
  -1 -28   6   13.68    3.03
  -1 -28  -7   25.35    3.93
  -1 -28   7   25.60    3.97
  -1 -28  -8   58.23    6.11
  -1 -28   8   56.18    5.78
  -1 -28  -9   76.39    7.10
  -1 -28   9   71.24    6.47
  -1 -28 -10   -1.04    1.34
  -1 -28  10    1.58    1.65
  -1 -28  11   23.34    3.85
  -1 -28 -11   23.51    4.04
  -1 -28  12   -0.66    1.34
  -1 -28 -12    0.69    1.52
  -1 -28 -13    0.75    1.38
  -1 -28  13    2.61    1.58
  -1 -28 -14   -0.51    1.02
  -1 -28  14    0.06    1.20
  -1 -28 -15   19.92    3.81
  -1 -28  15   20.31    3.56
  -1 -28 -16   -0.87    1.32
  -1 -28 -17   30.11    4.63
  -1 -28 -18    6.63    2.52
  -1 -28 -19    2.60    2.02
  -1 -28 -20   -0.73    1.34
  -1 -29   0   -2.42    1.81
  -1 -29  -1   48.22    5.42
  -1 -29   1   45.43    5.24
  -1 -29  -2    1.07    1.55
  -1 -29   2    3.49    1.69
  -1 -29   3   32.62    4.53
  -1 -29  -3   30.60    4.34
  -1 -29  -4   38.03    5.05
  -1 -29   4   27.07    4.16
  -1 -29   5   25.94    4.01
  -1 -29  -5   30.32    4.38
  -1 -29   6    3.38    1.56
  -1 -29  -6    7.09    2.47
  -1 -29   7   69.97    6.56
  -1 -29  -7   72.54    6.81
  -1 -29  -8   12.68    3.00
  -1 -29   8   17.59    3.36
  -1 -29  -9    7.39    2.66
  -1 -29 -10   19.05    3.66
  -1 -29 -11   33.33    4.80
  -1 -29 -12   -0.15    1.41
  -1 -29 -13   13.58    3.22
  -1 -29 -14    0.91    1.43
  -1 -29 -15   33.87    5.06
  -1 -29 -16   10.68    2.98
  -1 -29 -17    6.82    2.26
  -1 -29 -18   16.58    3.51
  -1 -30  -1   -0.01    1.19
  -1 -30  -2   38.18    4.91
  -1 -30  -3   -1.23    1.45
  -1 -30  -4   15.37    3.30
  -1 -30  -5   12.23    3.05
  -1 -30  -6   35.85    5.01
  -1 -30  -7   17.87    3.50
  -1 -30  -8   86.19    7.62
  -1 -30  -9   25.30    4.17
  -1 -30 -10   33.86    4.99
  -1 -30 -11    2.04    2.01
  -1 -30 -12   15.08    3.53
  -1 -30 -13    2.29    1.52
  -1 -30 -14   -1.01    1.31
  -1 -30 -15    1.17    1.41
  -1 -30 -16   24.01    4.25
   2   0   0  465.77    9.44
  -2   0   0  471.47    9.28
   2   0  -1   -0.02    0.28
  -2   0  -1    0.28    0.24
   2   0   1    0.97    0.41
  -2   0   1   -0.25    0.35
  -2   0   2   11.57    1.14
  -2   0  -2   13.19    1.11
   2   0  -2   12.18    1.18
  -2   0   3    0.08    0.25
  -2   0   4   37.10    2.20
  -2   0   5    0.00    0.39
  -2   0   6    3.13    0.73
  -2   0   7    0.06    0.54
  -2   0   8  217.67    6.67
  -2   0   9    0.79    0.62
  -2   0  10  136.39    5.42
  -2   0  11    0.18    0.56
  -2   0 -11    0.10    0.51
  -2   0  12  321.32    9.72
  -2   0 -12  338.32    9.75
  -2   0  13    0.70    0.58
  -2   0 -13    0.46    0.67
  -2   0 -14   51.99    3.88
  -2   0  14   49.83    3.76
  -2   0  15   -0.60    0.65
  -2   0 -15    1.46    0.94
  -2   0  16  572.73   15.91
  -2   0  17   -0.31    0.94
  -2   0  18   48.69    4.36
  -2   0  19    0.29    1.05
  -2   0  20    3.75    1.22
  -2   0  21    0.91    1.05
  -2   0  22  404.92   14.91
  -2   0  23    0.46    1.11
  -2   0  24   25.38    3.77
  -2   0  25   -0.65    0.92
  -2   0  26  120.64    8.05
  -2   0  27   -0.08    1.60
  -2   0  28   90.09    7.10
  -2   0  29   -0.26    1.31
  -2   0  30  349.69   14.90
  -2   0  31    4.30    2.49
  -2   0  32    2.79    1.71
  -2   0  33    0.68    1.01
  -2   0  34    1.37    1.92
  -2   0  35    6.59    2.78
  -2   0  36  106.18    8.45
  -2   0  37    4.73    2.24
  -2   0  38   14.81    3.44
  -2   0  39    4.06    2.34
  -2   0  40   56.65    6.58
  -2  -1   0  863.67   15.93
  -2   1   0  902.82   15.14
   2  -1   0  885.17   15.20
  -2   1  -1  111.75    3.20
  -2   1   1  108.94    3.36
   2  -1  -1  119.96    3.51
  -2  -1   1  113.90    3.82
  -2  -1  -1  114.22    3.78
  -2   1   2    5.11    0.68
   2  -1  -2    5.49    0.69
  -2   1  -2    3.75    0.54
  -2  -1   2    4.49    0.79
  -2  -1  -2    3.45    0.63
  -2  -1   3   57.42    2.94
   2  -1  -3   68.33    2.74
  -2   1   3   63.59    2.59
  -2   1   4    1.51    0.49
  -2  -1   4    1.11    0.49
   2  -1  -4    0.98    0.42
  -2   1   5   31.01    1.91
  -2  -1   5   30.68    2.06
   2  -1  -5   29.25    1.94
   2  -1  -6    6.63    0.99
  -2   1   6    8.76    1.13
  -2  -1   6    8.15    1.15
  -2   1   7   49.23    2.80
  -2  -1   7   52.11    2.91
   2  -1  -7   54.52    3.06
  -2  -1   8   50.05    2.95
   2  -1  -8   52.59    3.17
  -2   1   8   49.38    2.94
  -2  -1   9    3.02    0.82
  -2   1  -9    3.64    0.83
   2  -1  -9    3.85    0.88
  -2   1   9    3.85    0.97
  -2  -1  10   47.26    3.12
   2  -1 -10   40.64    3.11
  -2   1 -10   47.97    2.98
  -2   1  10   43.85    3.03
  -2  -1  11   49.74    3.31
  -2   1 -11   56.12    3.43
  -2   1  11   52.34    3.47
  -2  -1 -12  166.19    6.41
  -2  -1  12  170.61    6.62
  -2   1 -12  172.26    6.73
  -2   1  12  163.41    6.74
  -2   1  13  247.97    8.83
  -2  -1 -13  250.00    8.48
  -2   1 -13  243.22    8.59
  -2  -1  13  253.08    8.53
  -2  -1  14   56.75    3.91
  -2   1  14   53.90    3.98
  -2   1 -14   55.01    4.01
  -2  -1 -14   59.05    4.00
  -2  -1  15  133.95    6.43
  -2   1  15  147.34    7.06
  -2   1 -15  145.63    7.06
  -2  -1 -15  143.70    6.72
  -2   1  16  137.33    7.06
  -2   1 -16  133.97    7.10
  -2  -1  16  136.29    6.76
  -2  -1  17   72.31    4.90
  -2   1  17   63.25    4.96
  -2  -1  18    7.82    1.73
  -2   1  18    5.67    1.53
  -2  -1  19   42.74    4.09
  -2   1  19   48.93    4.59
  -2   1  20   67.40    5.57
  -2  -1  20   69.20    5.35
  -2  -1  21  138.66    7.94
  -2   1  21  129.44    7.86
  -2   1  22   99.29    6.85
  -2  -1  22   87.92    6.44
  -2   1  23    1.84    1.17
  -2  -1  23    4.16    1.72
  -2  -1  24  121.82    8.00
  -2   1  24  130.25    8.05
  -2  -1  25  256.39   12.16
  -2   1  25  267.75   12.03
  -2   1  26  275.89   12.42
  -2  -1  26  277.59   12.85
  -2   1  27   64.30    5.94
  -2  -1  27   65.14    6.14
  -2  -1  28    3.45    1.75
  -2   1  28    8.30    2.49
  -2  -1  29    4.61    1.75
  -2   1  29    3.70    2.10
  -2   1  30  133.10    8.87
  -2  -1  30  119.01    8.44
  -2   1  31    6.33    2.27
  -2  -1  31    6.57    2.36
  -2  -1  32    1.54    1.61
  -2   1  32    1.85    1.74
  -2   1  33    2.79    1.44
  -2  -1  33    1.89    1.55
  -2  -1  34   70.32    6.84
  -2   1  34   65.69    6.49
  -2  -1  35   20.14    4.01
  -2   1  35   20.26    3.90
  -2  -1  36   15.48    3.45
  -2   1  36   21.70    4.06
  -2   1  37    8.77    3.33
  -2  -1  37   10.36    3.26
  -2   1  38  121.84    9.57
  -2  -1  38  109.48    8.91
  -2  -1  39  125.60    9.85
  -2   1  39  141.68   10.27
  -2  -1  40   92.88    8.49
  -2   2   0 3527.31   52.63
   2  -2   0 3479.73   52.65
  -2  -2   0 3386.71   54.68
  -2  -2   1  134.81    4.45
  -2  -2  -1  121.88    4.26
  -2   2  -1  130.41    3.18
   2  -2  -1  132.47    3.47
  -2   2   1  131.59    3.35
  -2  -2  -2   25.79    1.83
  -2  -2   2   23.54    1.82
   2  -2  -2   29.41    1.52
  -2   2   2   25.30    1.36
  -2   2  -2   27.03    1.28
  -2   2   3    1.80    0.44
   2  -2  -3    0.99    0.36
  -2  -2   3    0.42    0.38
  -2  -2  -3    0.83    0.45
  -2   2   4  112.29    3.61
  -2  -2   4  111.82    4.19
   2  -2  -4  104.26    3.56
   2  -2  -5    5.50    0.87
  -2   2   5    6.16    0.88
  -2  -2   5    6.33    1.03
  -2   2   6  151.95    4.88
   2  -2  -6  149.36    4.97
  -2  -2   6  145.43    5.19
   2  -2  -7    3.98    0.78
  -2  -2   7    6.06    1.04
  -2   2   7    4.87    0.84
  -2   2  -7    5.41    0.87
  -2   2   8   99.48    4.37
   2  -2  -8  102.68    4.57
  -2  -2   8  104.23    4.54
  -2   2  -8  105.50    4.05
   2  -2  -9    7.42    1.29
  -2   2  -9    7.72    1.18
  -2   2   9    6.42    1.12
  -2  -2   9    7.61    1.28
  -2   2  10   20.71    2.12
   2  -2 -10   22.31    2.39
  -2   2 -10   20.70    1.97
  -2  -2  10   21.40    2.10
  -2   2 -11   11.89    1.64
  -2   2  11   10.78    1.58
  -2  -2  11   12.42    1.78
   2  -2 -11   11.35    1.91
  -2  -2  12   34.06    2.78
  -2   2  12   27.27    2.70
   2  -2 -12   29.28    2.97
  -2   2 -12   27.51    2.66
  -2   2  13   64.85    4.38
  -2  -2  13   68.46    4.20
   2  -2 -13   56.51    4.51
  -2   2 -13   66.88    4.44
  -2   2 -14 1754.99   34.05
  -2  -2 -14 1687.27   32.66
  -2   2  14 1729.11   34.00
  -2  -2  14 1787.57   32.86
   2  -2 -14 1607.84   34.29
  -2  -2  15   86.74    5.08
  -2   2 -15   89.06    5.62
  -2   2  15   91.66    5.63
  -2   2  16  352.98   12.33
  -2   2 -16  352.25   12.32
  -2  -2  16  375.93   11.67
  -2  -2  17   21.71    2.65
  -2   2  17   24.41    3.10
  -2   2  18    8.18    1.97
  -2  -2  18    7.14    1.67
  -2   2  19   14.90    2.55
  -2  -2  19   13.34    2.33
  -2   2  20   22.55    3.30
  -2  -2  20   23.20    3.12
  -2  -2  21   23.76    3.27
  -2   2  21   18.47    2.86
  -2  -2  22    1.66    1.44
  -2   2  22    2.20    1.44
  -2  -2  23   13.11    2.53
  -2   2  23   16.01    2.83
  -2   2  24   21.73    3.35
  -2  -2  24   16.31    2.98
  -2   2  25   52.36    5.11
  -2  -2  25   45.41    4.93
  -2   2  26   82.85    6.66
  -2  -2  26   81.24    6.85
  -2   2  27   29.96    4.17
  -2  -2  27   25.88    4.00
  -2   2  28  190.43   10.36
  -2  -2  28  178.98   10.45
  -2  -2  29   41.57    5.06
  -2   2  29   52.61    5.63
  -2  -2  30  138.71    9.38
  -2   2  30  143.45    9.14
  -2   2  31   40.52    5.06
  -2  -2  31   39.23    5.22
  -2  -2  32   37.93    4.91
  -2   2  32   38.69    4.97
  -2  -2  33    7.45    2.26
  -2   2  33   10.64    3.03
  -2   2  34   93.60    7.88
  -2  -2  34   84.86    7.57
  -2   2  35    5.51    2.31
  -2  -2  35    1.35    1.45
  -2  -2  36    0.19    1.08
  -2   2  36    3.01    1.87
  -2   2  37   36.36    5.10
  -2  -2  37   33.79    5.08
  -2  -2  38   27.46    4.64
  -2  -2  39   33.47    5.13
  -2  -2  40   56.66    6.72
  -2  -3   0 2509.67   40.86
   2  -3   0 2505.95   37.82
  -2   3   0 2494.99   37.76
  -2  -3  -1  258.32    7.08
  -2   3   1  262.57    5.19
  -2  -3   1  260.77    7.10
   2  -3  -1  277.78    5.37
   2  -3  -2  102.18    2.89
  -2  -3  -2   98.69    4.00
  -2   3   2  101.39    2.86
  -2  -3   2   95.02    3.89
  -2   3   3  143.53    3.90
  -2  -3   3  142.86    4.97
  -2  -3  -3  143.73    5.00
   2  -3  -3  138.78    3.80
  -2  -3   4  115.24    4.55
  -2   3   4  122.73    3.86
   2  -3  -4  121.88    3.77
  -2   3   5   65.63    3.00
  -2  -3   5   65.25    3.37
   2  -3  -5   67.14    2.91
  -2   3  -5   69.17    2.51
   2  -3  -6   74.48    3.35
  -2   3  -6   75.41    3.00
  -2  -3   6   74.38    3.69
  -2   3   6   76.54    3.48
  -2   3  -7   11.47    1.18
  -2   3   7   10.83    1.41
   2  -3  -7   13.25    1.52
  -2  -3   7    9.36    1.34
   2  -3  -8  105.12    4.71
  -2   3   8   97.90    4.59
  -2  -3   8  106.85    4.70
  -2   3  -8  108.11    4.34
  -2   3  -9  105.06    4.66
  -2   3   9  104.63    5.01
   2  -3  -9  109.62    5.14
  -2  -3   9  108.40    4.87
  -2   3 -10    9.67    1.44
   2  -3 -10   10.26    1.72
  -2  -3  10    9.17    1.46
  -2   3  10    7.81    1.43
  -2   3 -11  324.44    9.91
  -2   3  11  307.10    9.99
   2  -3 -11  317.91   10.32
  -2  -3  11  319.54    9.52
  -2   3 -12  108.04    5.58
  -2  -3  12  118.27    5.41
   2  -3 -12  108.51    5.93
  -2   3  12  105.19    5.72
  -2   3 -13 1077.98   23.49
   2  -3 -13  990.59   23.98
  -2   3  13 1063.47   23.78
  -2  -3  13 1167.56   22.92
  -2   3  14  520.73   14.93
  -2   3 -14  522.17   14.70
   2  -3 -14  485.11   15.12
  -2  -3  14  526.23   13.85
  -2   3 -15  108.66    6.22
  -2  -3  15  115.77    5.85
  -2   3  15  122.99    6.68
  -2   3  16   21.40    2.87
  -2   3 -16   22.77    2.87
  -2  -3  16   18.91    2.37
  -2   3  17    3.39    1.34
  -2  -3  17    1.13    0.78
  -2  -3  18  143.05    7.25
  -2   3  18  150.27    7.85
  -2   3  19   10.83    2.20
  -2  -3  19   12.03    2.05
  -2   3  20   34.40    3.82
  -2  -3  20   29.90    3.50
  -2  -3  21   47.52    4.48
  -2   3  21   48.09    4.59
  -2   3  22   22.86    3.39
  -2  -3  22   15.52    2.64
  -2  -3  23    0.08    1.15
  -2   3  23    2.89    1.41
  -2  -3  24   26.35    3.59
  -2   3  24   34.83    4.33
  -2  -3  25  259.54   12.15
  -2   3  25  277.96   12.14
  -2   3  26  146.66    8.82
  -2  -3  26  126.37    8.49
  -2  -3  27  335.11   14.78
  -2   3  27  408.73   15.21
  -2   3  28  121.70    8.23
  -2  -3  28   90.42    7.44
  -2  -3  29    3.39    1.92
  -2   3  29    4.06    1.69
  -2  -3  30    4.61    1.68
  -2   3  30    6.29    2.27
  -2  -3  31   15.26    3.35
  -2   3  31   25.28    3.94
  -2   3  32   19.05    3.48
  -2  -3  32   12.84    2.96
  -2  -3  33   40.39    5.28
  -2   3  33   44.80    5.27
  -2   3  34   15.04    3.39
  -2  -3  34   17.11    3.73
  -2  -3  35   47.16    5.79
  -2   3  35   56.44    6.03
  -2  -3  36    3.73    2.16
  -2  -3  37   40.13    5.66
  -2  -3  38   44.17    5.93
  -2  -3  39  149.00   10.84
  -2  -3  40   31.82    5.15
  -2  -4   0    9.12    1.37
  -2  -4   1 3214.33   52.51
  -2  -4  -1 3307.51   52.63
   2  -4  -2  105.61    2.72
  -2  -4  -2   98.27    4.27
  -2  -4   2   98.33    4.14
  -2   4   2   88.65    2.93
  -2  -4  -3   82.81    3.92
  -2  -4   3   79.92    3.76
  -2   4   3   77.99    2.98
   2  -4  -3   88.79    2.75
  -2   4  -4    3.32    0.51
  -2   4   4    2.76    0.59
  -2  -4   4    4.42    0.94
   2  -4  -4    4.21    0.71
  -2   4  -5   29.14    1.67
  -2  -4   5   33.16    2.42
   2  -4  -5   31.53    2.06
  -2   4   5   26.78    2.01
  -2   4   6   82.55    3.89
   2  -4  -6   96.54    4.12
  -2   4  -6   89.87    3.45
  -2  -4   6   92.04    4.25
  -2   4  -7   10.30    1.20
  -2   4   7    7.80    1.28
   2  -4  -7    9.46    1.42
  -2  -4   7    9.97    1.47
   2  -4  -8    2.52    0.86
  -2   4   8    1.97    0.72
  -2  -4   8    2.84    0.76
  -2   4  -8    1.44    0.52
  -2  -4   9    0.38    0.60
   2  -4  -9    0.03    0.52
  -2   4  -9    0.57    0.49
  -2   4   9    0.23    0.57
  -2  -4  10  123.92    5.52
  -2   4 -10  113.86    5.12
  -2   4  10  111.31    5.38
   2  -4 -10  111.38    5.63
   2  -4 -11   27.70    2.91
  -2   4 -11   28.09    2.61
  -2   4  11   24.52    2.57
  -2  -4  11   30.07    2.66
  -2   4 -12   24.32    2.56
  -2   4  12   24.30    2.69
   2  -4 -12   18.05    2.48
  -2  -4  12   24.49    2.56
   2  -4 -13  760.04   20.32
  -2   4 -13  870.66   19.89
  -2  -4  13  909.59   19.49
  -2   4  13  883.33   20.20
  -2   4 -14  147.59    7.00
   2  -4 -14  133.97    7.34
  -2  -4  14  154.09    6.77
  -2   4  14  155.67    7.33
  -2   4 -15 1123.27   24.90
  -2   4  15 1104.18   24.71
  -2  -4  15 1110.68   23.97
  -2   4 -16    0.70    0.90
  -2  -4  16    3.25    1.26
  -2   4  16    2.84    1.38
  -2   4  17   13.37    2.21
  -2  -4  17   10.96    1.98
  -2   4  18   63.09    4.96
  -2  -4  18   56.14    4.44
  -2  -4  19    7.17    1.77
  -2   4  19    6.85    1.78
  -2  -4  20   65.05    5.06
  -2   4  20   79.45    5.84
  -2   4  21    3.02    1.61
  -2  -4  21    3.10    1.45
  -2  -4  22   60.48    5.15
  -2   4  22   73.28    5.76
  -2  -4  23   20.41    3.04
  -2   4  23   25.31    3.50
  -2  -4  24  124.85    7.93
  -2   4  24  149.03    8.43
  -2   4  25    2.25    1.47
  -2  -4  25   -1.15    1.26
  -2  -4  26    0.75    1.21
  -2   4  26    4.07    1.92
  -2  -4  27  241.61   12.22
  -2   4  27  292.54   12.79
  -2   4  28   76.37    6.60
  -2  -4  28   51.32    5.71
  -2   4  29  169.58    9.93
  -2  -4  29  139.82    9.48
  -2   4  30    8.23    2.57
  -2  -4  30    4.15    1.90
  -2  -4  31   95.36    8.12
  -2   4  31  113.10    8.17
  -2  -4  32    4.35    2.29
  -2   4  32    3.96    1.89
  -2  -4  33    4.50    2.06
  -2  -4  34   10.71    3.08
  -2  -4  35   26.78    4.44
  -2  -4  36   15.29    3.66
  -2  -4  37   51.12    6.27
  -2  -4  38   14.53    3.65
  -2  -4  39    4.26    2.61
  -2  -4  40   16.55    3.84
  -2  -5   0 4043.40   64.50
  -2  -5  -1   73.67    3.82
  -2  -5   1   74.14    3.79
  -2  -5  -2 1544.15   27.72
   2  -5  -2 1530.19   24.00
  -2  -5   2 1501.72   27.39
  -2   5   3    4.06    0.60
  -2  -5  -3    2.11    0.59
   2  -5  -3    4.38    0.68
  -2  -5   3    2.93    0.84
   2  -5  -4   16.40    1.41
  -2  -5   4   16.58    1.79
  -2   5   4   15.94    1.30
  -2  -5   5  219.41    7.05
   2  -5  -5  214.15    6.21
  -2   5   5  206.06    5.87
  -2   5  -5  214.63    4.82
  -2   5   6  203.85    6.16
   2  -5  -6  207.94    6.62
  -2   5  -6  210.13    5.22
  -2  -5   6  203.26    6.94
  -2  -5   7    7.50    1.35
   2  -5  -7    7.04    1.26
  -2   5  -7    6.50    0.87
  -2   5   7    7.93    1.26
  -2   5  -8  188.16    5.75
   2  -5  -8  181.43    6.90
  -2   5   8  181.44    6.46
   2  -5   8  202.81    5.81
  -2  -5   8  192.21    6.86
   2  -5  -9  186.89    7.46
  -2   5  -9  199.12    6.39
   2  -5   9  216.02    6.49
  -2  -5   9  227.36    7.55
  -2   5   9  196.60    7.07
  -2  -5  10    0.60    0.56
   2  -5 -10    0.12    0.70
  -2   5 -10    2.84    0.83
   2  -5  10    2.05    0.85
  -2   5  10    1.53    0.90
  -2   5  11    4.59    1.41
   2  -5 -11    3.89    1.38
  -2   5 -11    5.81    1.33
   2  -5  11    4.31    1.24
  -2  -5  11    3.40    0.95
  -2   5 -12 1523.82   29.05
   2  -5 -12 1473.26   31.28
  -2   5  12 1549.74   30.07
   2  -5  12 1406.67   28.41
   2  -5 -13  387.10   12.89
  -2   5 -13  368.36   11.12
  -2   5  13  424.87   12.24
  -2  -5  13  380.70   11.34
   2  -5  13  326.87   10.54
   2  -5 -14 1978.48   39.54
  -2  -5  14 2013.52   36.84
  -2   5 -14 1954.12   36.80
  -2   5  14 2086.54   37.72
  -2   5 -15   56.68    4.32
  -2  -5  15   56.75    4.18
   2  -5  15   56.83    4.23
  -2   5  15   59.32    4.54
   2  -5  16   71.51    4.86
  -2   5 -16   66.51    4.83
  -2  -5  16   72.84    4.91
  -2   5  16   73.84    5.19
  -2   5  17   15.31    2.47
  -2   5 -17   15.60    2.40
  -2  -5  17   17.63    2.54
   2  -5  17   20.24    2.64
   2  -5  18    3.26    1.24
  -2  -5  18    0.61    1.20
  -2   5  18    3.12    1.33
  -2  -5  19   47.36    4.20
  -2   5  19   51.21    4.45
   2  -5  19   44.90    4.14
   2  -5  20    8.41    1.89
  -2   5  20    4.40    1.50
  -2  -5  20    7.28    1.80
  -2   5  21    0.28    0.77
  -2  -5  21   -0.25    0.80
   2  -5  21   -0.95    1.21
  -2  -5  22   23.12    3.23
   2  -5  22   20.58    2.99
  -2   5  22   19.60    3.00
   2  -5  23    4.36    1.51
  -2   5  23    4.87    1.71
  -2  -5  23    7.96    2.00
  -2  -5  24   85.91    6.46
  -2   5  24   90.32    6.66
  -2  -5  25   17.10    3.26
  -2   5  25   17.97    3.34
  -2   5  26  705.45   20.84
  -2  -5  26  594.69   20.05
  -2   5  27   79.01    6.53
  -2  -5  27   63.08    6.20
  -2  -5  28  526.10   19.30
  -2   5  28  623.20   19.72
  -2  -5  29    5.09    2.40
  -2   5  29   13.70    3.17
  -2  -5  30   -0.55    1.68
  -2  -5  31   13.44    3.19
  -2  -5  32    0.93    1.54
  -2  -5  33    5.80    2.61
  -2  -5  34   12.37    3.13
  -2  -5  35    4.23    2.27
  -2  -5  36    6.64    2.53
  -2  -5  37    5.58    2.62
  -2  -5  38  134.32   10.28
  -2  -5  39   12.49    3.47
  -2  -6   0   67.89    3.75
  -2  -6   1   34.61    2.67
  -2  -6  -1   34.48    2.67
  -2  -6  -2  131.14    5.45
  -2  -6   2  127.04    5.27
   2  -6  -2  141.11    3.76
  -2  -6  -3   46.68    3.14
  -2  -6   3   40.46    2.87
   2  -6  -3   49.30    2.35
  -2  -6  -4    2.84    0.91
   2  -6  -4    2.66    0.58
  -2  -6   4    3.11    0.95
  -2  -6   5  100.54    4.68
   2  -6  -5   95.19    4.25
   2  -6   5  117.20    3.20
  -2   6  -5  100.07    2.82
  -2  -6   6   28.45    2.50
  -2   6  -6   28.06    1.50
   2  -6  -6   24.79    2.27
   2  -6   6   32.18    1.80
  -2  -6   7  177.77    6.71
   2  -6  -7  150.58    6.31
  -2   6  -7  179.95    4.81
   2  -6   7  172.17    5.21
   2  -6  -8   51.13    3.67
  -2   6   8   56.35    3.18
  -2  -6   8   57.50    3.64
  -2   6  -8   60.38    2.77
   2  -6   8   50.58    2.86
  -2  -6   9    0.91    0.74
   2  -6   9    0.97    0.47
  -2   6  -9    1.03    0.51
  -2   6   9    1.04    0.62
   2  -6  -9    1.84    0.74
  -2   6 -10   26.81    2.19
   2  -6 -10   25.26    2.84
   2  -6  10   21.40    2.14
  -2   6  10   27.23    2.49
  -2  -6  10   25.59    2.50
   2  -6 -11  136.06    6.92
  -2   6 -11  128.52    5.36
  -2   6  11  126.08    5.71
  -2  -6  11  139.14    6.14
   2  -6  11  120.67    5.49
  -2   6 -12  158.84    6.37
  -2   6  12  153.53    6.68
   2  -6  12  150.24    6.45
   2  -6 -12  165.25    8.00
  -2  -6  12  174.48    7.09
  -2  -6  13  143.27    6.61
  -2   6  13  125.88    6.22
   2  -6 -13  158.91    8.02
  -2   6 -13  150.21    6.44
   2  -6  13  145.30    6.49
  -2   6  14  245.57    9.20
  -2   6 -14  249.93    9.01
  -2  -6  14  247.01    9.18
   2  -6  14  233.72    8.83
   2  -6 -14  266.28   10.95
  -2  -6  15  141.77    6.86
   2  -6  15  148.99    6.96
  -2   6  15  134.66    6.86
  -2   6 -15  138.67    6.76
   2  -6  16  111.10    6.16
  -2   6  16  119.18    6.46
  -2   6 -16  108.74    6.18
  -2  -6  16  114.98    6.16
   2  -6  17   21.20    2.74
  -2   6 -17   20.46    2.80
  -2   6  17   21.93    2.83
  -2  -6  17   18.62    2.55
  -2   6  18   25.27    3.11
  -2  -6  18   22.70    2.94
   2  -6  18   20.93    2.81
  -2   6  19  170.05    8.38
  -2  -6  19  152.64    7.71
   2  -6  19  169.59    8.22
  -2  -6  20    0.55    0.70
  -2   6  20    2.95    1.51
   2  -6  20    1.10    1.15
  -2  -6  21  373.86   13.42
   2  -6  21  417.59   14.25
  -2   6  21  411.30   14.21
   2  -6  22   15.15    2.66
  -2  -6  22   16.47    2.66
  -2   6  22   18.01    2.97
  -2  -6  23    7.31    1.73
  -2   6  23    6.21    1.94
   2  -6  23    1.99    1.05
  -2  -6  24   17.92    3.08
   2  -6  24   12.89    2.53
  -2   6  24   20.13    3.28
  -2  -6  25  174.78    9.68
   2  -6  25  202.07   10.16
  -2  -6  26   14.12    2.87
   2  -6  26   18.34    3.22
  -2  -6  27  108.02    7.94
  -2  -6  28   89.34    7.28
  -2  -6  29   10.51    2.45
  -2  -6  30   44.05    5.26
  -2  -6  31   10.26    3.00
  -2  -6  32    2.61    1.58
  -2  -6  33    3.14    1.37
  -2  -6  34   13.61    3.15
  -2  -6  35   93.91    8.51
  -2  -6  36   10.30    3.02
  -2  -6  37    0.88    1.13
  -2  -6  38    2.39    2.25
  -2  -6  39   19.01    4.05
  -2  -7   0   73.47    4.06
   2  -7  -1 2497.20   39.78
  -2  -7  -1 2635.48   44.14
  -2  -7   1 2700.88   44.05
  -2  -7   2   51.80    3.34
   2  -7  -2   47.12    2.38
  -2  -7  -2   52.04    3.47
   2  -7  -3   72.30    3.21
  -2  -7   3   75.75    4.10
  -2  -7  -3   69.76    4.06
   2  -7  -4    8.99    1.20
   2  -7   4    6.72    0.73
  -2  -7   4    8.55    1.43
  -2  -7  -4    9.63    1.54
  -2   7  -4    9.24    0.64
   2  -7   5  167.07    4.70
   2  -7  -5  172.25    6.21
  -2  -7   5  172.78    6.54
  -2   7  -5  177.39    4.10
  -2  -7   6   47.12    3.26
  -2   7  -6   48.08    2.00
   2  -7   6   40.10    2.29
   2  -7  -6   46.35    3.23
   2  -7   7   15.86    1.53
   2  -7  -7   14.67    1.93
  -2   7  -7   17.65    1.30
  -2  -7   7   14.52    1.89
   2  -7   8   93.44    4.20
   2  -7  -8  105.13    5.48
  -2  -7   8  101.50    5.04
  -2   7  -8  102.41    3.68
   2  -7  -9  106.66    5.80
   2  -7   9   98.09    4.55
  -2   7  -9  100.38    3.96
  -2  -7   9   97.95    5.03
   2  -7  10   20.38    2.17
  -2  -7  10   14.85    2.01
   2  -7 -10   21.92    2.75
  -2   7 -10   18.13    1.75
   2  -7 -11  466.80   14.18
   2  -7  11  438.28   11.90
  -2   7 -11  450.44   11.06
  -2  -7  11  415.35   12.22
   2  -7 -12   20.11    2.88
   2  -7  12   18.91    2.52
  -2  -7  12   14.17    2.14
  -2   7 -12   15.63    1.90
  -2   7 -13 2157.32   39.06
   2  -7 -13 2312.20   43.89
  -2  -7  13 2180.74   40.44
   2  -7  13 2192.95   40.14
   2  -7  14   81.49    5.11
   2  -7 -14   85.78    6.20
  -2   7 -14   72.06    4.53
  -2  -7  14   70.15    4.67
  -2  -7  15 1293.13   27.37
  -2   7 -15 1233.43   26.74
   2  -7  16  277.96   10.36
  -2   7 -16  253.43    9.68
  -2  -7  16  253.54    9.81
   2  -7  17   19.20    2.71
  -2   7 -17   11.95    2.19
  -2  -7  17   13.78    2.26
   2  -7  18    5.54    1.63
  -2  -7  18    4.80    1.45
  -2  -7  19   75.47    5.43
   2  -7  19   90.45    5.94
   2  -7  20    2.80    1.12
  -2  -7  20    5.38    1.58
  -2  -7  21   31.81    3.75
   2  -7  21   38.45    4.01
  -2  -7  22   18.48    2.84
   2  -7  22   16.99    2.75
   2  -7  23    1.81    1.29
  -2  -7  23   -0.46    0.97
  -2  -7  24   32.63    4.07
   2  -7  24   34.51    4.11
   2  -7  25  444.08   15.76
  -2  -7  25  405.04   15.50
  -2  -7  26    9.84    2.76
   2  -7  26   15.75    3.37
   2  -7  27  785.72   22.40
  -2  -7  27  646.08   21.49
  -2  -7  28   -0.07    1.13
   2  -7  28    4.03    2.24
  -2  -7  29  184.04   11.02
   2  -7  29  207.74   10.94
  -2  -7  30  128.89    9.23
  -2  -7  31    0.34    1.11
  -2  -7  32   -0.80    1.41
  -2  -7  33   -0.65    1.79
  -2  -7  34   26.52    4.57
  -2  -7  35    9.59    2.70
  -2  -7  36    4.61    2.30
  -2  -7  37   30.84    4.98
  -2  -7  38    1.92    2.14
  -2  -7  39  162.20   11.71
   2  -8   0  877.31   14.45
  -2  -8   0  932.26   19.48
  -2  -8   1   27.54    2.58
   2  -8  -1   25.42    1.29
  -2  -8  -1   25.54    2.55
   2  -8  -1   30.04    1.45
  -2  -8   2  250.95    8.53
  -2  -8  -2  261.78    8.89
   2  -8  -2  303.02    6.62
   2  -8   3  365.29    6.81
  -2  -8  -3  377.15   10.98
  -2  -8   3  355.42   10.54
   2  -8  -3  425.41    8.90
   2  -8   4   30.43    1.41
  -2  -8   4   24.02    2.43
  -2   8  -4   26.36    1.26
  -2  -8  -4   24.68    2.49
   2  -8  -4   33.73    2.29
   2  -8  -5  142.85    5.41
   2  -8   5  144.35    4.01
  -2  -8   5  118.83    5.56
  -2  -8  -5  125.83    5.92
  -2   8  -5  136.68    3.61
  -2   8  -6   34.97    1.77
   2  -8  -6   40.97    3.02
  -2  -8   6   36.48    2.99
   2  -8   6   38.59    2.13
  -2   8  -7    8.71    0.95
  -2  -8   7    8.23    1.45
   2  -8   7   10.04    1.17
   2  -8  -7    9.87    1.67
   2  -8  -8   66.68    4.35
   2  -8   8   69.89    3.57
  -2  -8   8   65.81    4.25
  -2   8  -8   68.38    2.95
  -2   8  -9  323.60    8.00
   2  -8  -9  327.94   10.95
   2  -8   9  312.29    9.10
  -2  -8   9  306.48    9.98
   2  -8  10   27.86    2.55
   2  -8 -10   28.70    3.07
  -2   8 -10   25.38    2.02
  -2  -8  10   27.64    2.72
   2  -8 -11  222.69    9.44
  -2   8 -11  227.04    7.10
   2  -8  11  222.37    8.08
  -2  -8  11  219.50    8.32
  -2  -8  12  177.81    7.67
   2  -8 -12  205.64    9.30
   2  -8  12  206.79    7.90
  -2   8 -12  190.94    6.80
   2  -8 -13    1.03    0.88
  -2   8 -13    1.11    0.74
  -2  -8  13    0.47    0.74
   2  -8  13    2.93    1.23
  -2   8 -14  568.47   14.72
  -2  -8  14  592.23   15.97
   2  -8  14  619.87   16.05
   2  -8  15   49.98    4.15
  -2  -8  15   45.89    3.89
  -2   8 -15   45.86    3.67
   2  -8  16  352.66   11.80
  -2  -8  16  330.28   11.36
  -2   8 -16  295.93   10.61
   2  -8  17   38.85    3.74
  -2  -8  17   32.40    3.40
  -2   8 -17   32.60    3.36
   2  -8  18    9.92    2.05
  -2  -8  18    3.97    1.40
   2  -8  19    1.07    1.23
  -2  -8  19    0.58    0.77
  -2  -8  20    4.34    1.54
   2  -8  20    3.99    1.42
  -2  -8  21   28.53    3.52
   2  -8  21   34.15    3.89
  -2  -8  22   19.19    3.04
   2  -8  22   26.13    3.39
  -2  -8  23    1.74    1.25
   2  -8  23   -1.20    0.89
   2  -8  24   13.95    2.68
  -2  -8  24    9.66    2.23
   2  -8  25    2.81    1.73
  -2  -8  25    0.91    1.33
  -2  -8  26   13.02    2.66
   2  -8  26   22.14    3.52
   2  -8  27    6.16    2.25
  -2  -8  27    0.29    1.43
   2  -8  28  227.01   11.35
  -2  -8  28  181.15   10.66
   2  -8  29   21.13    3.67
  -2  -8  29   10.45    2.85
   2  -8  30  139.45    8.95
  -2  -8  30  120.06    8.93
  -2  -8  31   14.68    3.32
   2  -8  31   17.05    3.29
  -2  -8  32   -0.17    1.25
  -2  -8  33    6.17    2.44
  -2  -8  34    1.47    1.68
  -2  -8  35   64.29    7.20
  -2  -8  36    2.96    2.14
  -2  -8  37   12.00    3.24
  -2  -8  38    1.64    2.07
  -2  -8  39    0.55    1.64
   2  -9   0 1778.66   28.20
  -2  -9   0 1837.54   33.58
  -2  -9  -1  605.03   14.83
  -2  -9   1  584.51   14.61
   2  -9  -1  600.97   10.88
   2  -9   1  587.92   10.45
  -2  -9  -2  244.05    8.58
  -2  -9   2  236.17    8.26
   2  -9   2  242.00    5.01
   2  -9  -3   63.18    2.78
   2  -9   3   54.25    1.91
  -2  -9   3   52.47    3.72
  -2  -9  -3   53.72    3.84
   2  -9   4   93.49    2.78
  -2   9  -4   91.95    2.80
   2  -9  -4   98.95    3.90
  -2  -9   4   88.03    4.83
  -2  -9  -4   86.44    4.95
  -2  -9  -5    0.49    0.68
  -2   9  -5    1.51    0.39
   2  -9   5    1.92    0.44
  -2  -9   5    0.74    0.49
   2  -9  -5    1.76    0.69
   2  -9  -6    0.17    0.36
  -2   9  -6    1.33    0.43
  -2  -9   6    0.63    0.55
   2  -9   6    0.78    0.42
   2  -9  -7    8.28    1.39
  -2  -9   7    8.20    1.51
  -2   9  -7    8.86    1.00
   2  -9   7   11.40    1.21
   2  -9  -8  117.89    5.74
  -2  -9   8  110.70    5.63
   2  -9   8  113.65    4.46
  -2   9  -8  112.63    4.04
   2  -9  -9   46.41    3.74
   2  -9   9   45.56    2.95
  -2  -9   9   41.36    3.47
  -2   9  -9   43.61    2.55
   2  -9 -10   23.67    2.78
  -2  -9  10   22.51    2.57
  -2   9 -10   20.61    1.85
   2  -9  10   21.85    2.18
   2  -9 -11  115.56    6.50
   2  -9  11  105.23    5.21
  -2  -9  11   98.33    5.56
  -2   9 -11  106.13    4.59
   2  -9  12  393.75   11.69
   2  -9 -12  412.56   13.82
  -2  -9  12  392.32   12.15
  -2   9 -12  394.65   10.56
   2  -9  13  197.24    8.06
  -2   9 -13  195.28    7.17
   2  -9 -13  197.88    9.45
  -2  -9  13  202.33    8.34
   2  -9  14 1040.88   23.03
  -2   9 -14  963.74   21.06
  -2  -9  14  968.26   22.60
   2  -9  15  386.11   12.43
  -2  -9  15  353.28   11.93
  -2   9 -15  344.80   11.03
   2  -9  16   17.56    2.61
  -2  -9  16   14.53    2.38
  -2   9 -16   13.33    2.11
   2  -9  17   63.31    4.82
  -2  -9  17   56.10    4.52
  -2   9 -17   54.16    4.38
   2  -9  18  104.07    6.33
  -2  -9  18   92.34    6.04
  -2  -9  19   11.51    2.23
   2  -9  19   19.09    2.72
  -2  -9  20   43.63    4.37
   2  -9  20   42.50    4.19
  -2  -9  21   73.33    5.63
   2  -9  21   75.72    5.76
  -2  -9  22  158.53    8.65
   2  -9  22  179.94    9.25
  -2  -9  23   41.72    4.43
   2  -9  23   53.52    5.10
  -2  -9  24  151.65    8.83
   2  -9  24  180.16    9.46
  -2  -9  25   31.91    4.05
   2  -9  25   38.46    4.45
  -2  -9  26  384.62   15.27
   2  -9  26  416.21   15.26
  -2  -9  27  102.75    7.68
   2  -9  27  113.06    7.77
  -2  -9  28   96.97    7.67
   2  -9  28   99.20    7.40
  -2  -9  29  147.94    9.74
   2  -9  29  162.33    9.65
   2  -9  30   12.38    2.84
  -2  -9  30    8.19    2.34
   2  -9  31   14.40    3.03
  -2  -9  31   10.48    2.71
   2  -9  32    0.74    1.33
  -2  -9  32   -1.49    1.58
  -2  -9  33   12.48    3.24
  -2  -9  34   26.04    4.36
  -2  -9  35   57.85    6.91
  -2  -9  36   15.02    3.53
  -2  -9  37   24.34    4.65
  -2  -9  38   90.24    8.89
   2 -10   0  129.39    3.68
  -2 -10   0  129.95    6.19
  -2 -10   1 1126.47   23.87
  -2 -10  -1 1146.04   24.10
   2 -10  -1 1135.53   19.48
   2 -10   1 1168.09   19.15
  -2 -10  -2  100.91    5.41
   2 -10   2  103.51    3.09
  -2 -10   2   97.16    5.22
   2 -10  -2  102.23    3.52
  -2 -10   3  108.45    5.58
   2 -10   3  119.56    3.35
  -2 -10  -3  110.83    5.83
   2 -10  -4    0.93    0.59
  -2 -10  -4   -0.80    0.97
   2 -10   4   -0.05    0.22
  -2  10  -4    0.39    0.21
  -2 -10   4   -0.03    0.55
  -2 -10   5  179.25    7.44
   2 -10   5  201.82    5.02
   2 -10  -5  202.15    6.31
  -2  10  -5  196.59    5.08
  -2 -10  -5  200.00    7.94
  -2  10  -6  105.75    3.65
  -2 -10  -6  107.47    5.67
   2 -10  -6  113.91    4.85
  -2 -10   6  102.82    5.43
   2 -10   6  111.29    3.69
  -2 -10   7   54.23    3.89
  -2  10  -7   58.78    2.73
   2 -10   7   59.58    2.78
   2 -10  -7   61.13    3.75
   2 -10  -8  106.79    5.25
  -2 -10   8  103.73    5.52
  -2  10  -8  104.63    4.00
   2 -10   8  107.95    4.18
  -2 -10   9  357.27   11.29
  -2  10  -9  351.62    8.88
   2 -10  -9  369.29   11.29
   2 -10   9  369.98    9.41
  -2 -10  10   13.42    1.93
   2 -10  10   12.52    1.59
  -2  10 -10   11.70    1.43
   2 -10 -10   13.06    2.09
   2 -10 -11    1.24    0.79
   2 -10  11   -0.21    0.59
  -2  10 -11    0.21    0.44
  -2 -10  11    0.16    0.65
  -2  10 -12   67.15    3.84
   2 -10 -12   76.50    5.43
  -2 -10  12   67.13    4.71
   2 -10  12   71.31    4.39
   2 -10 -13 1330.25   30.34
   2 -10  13 1359.55   27.39
  -2 -10  13 1291.26   27.91
  -2  10 -13 1334.52   25.92
  -2  10 -14   14.14    1.97
   2 -10  14   14.11    2.26
  -2 -10  14   15.38    2.30
   2 -10  15  483.52   14.28
  -2 -10  15  460.70   14.21
  -2  10 -15  461.80   13.11
   2 -10  16    5.32    1.66
  -2 -10  16    6.06    1.56
  -2  10 -16    3.54    1.11
  -2 -10  17   27.87    3.33
   2 -10  17   32.95    3.51
   2 -10  18    8.57    2.00
  -2 -10  18    3.10    1.53
  -2 -10  19   -0.12    0.93
   2 -10  19    2.73    1.46
   2 -10  20    9.63    2.31
  -2 -10  20    6.90    2.02
   2 -10  21  106.72    6.84
  -2 -10  21   95.15    6.52
   2 -10  22   16.73    2.94
  -2 -10  22   15.22    2.76
   2 -10  23   73.58    5.95
  -2 -10  23   74.79    6.05
   2 -10  24   45.71    4.86
  -2 -10  24   44.01    4.68
   2 -10  25   24.99    3.62
  -2 -10  25   23.06    3.48
   2 -10  26   11.85    2.67
  -2 -10  26   12.56    2.92
  -2 -10  27  372.98   15.57
   2 -10  27  419.39   15.58
   2 -10  28    5.41    2.13
  -2 -10  28    0.72    1.62
  -2 -10  29  192.00   11.21
   2 -10  29  196.55   10.61
   2 -10  30    1.40    1.33
  -2 -10  30   -2.90    2.16
   2 -10  31    3.47    1.70
  -2 -10  31    6.35    2.21
   2 -10  32   25.07    3.96
  -2 -10  32   23.10    4.30
  -2 -10  33   -2.57    2.01
   2 -10  33   -0.26    1.09
  -2 -10  34    8.17    2.48
   2 -10  34   13.00    3.19
  -2 -10  35    2.79    1.43
  -2 -10  36   -1.38    1.97
  -2 -10  37   -2.65    2.30
  -2 -10  38   30.63    5.15
  -2 -11   0   25.26    2.72
   2 -11   0   29.09    1.68
  -2 -11  -1  136.50    6.48
   2 -11   1  137.92    4.05
   2 -11  -1  133.11    4.17
  -2 -11   1  133.69    6.42
   2 -11   2  238.57    5.75
  -2 -11  -2  235.01    8.87
   2 -11  -2  237.37    6.27
  -2 -11   2  246.68    8.96
  -2 -11  -3   88.90    5.25
  -2 -11   3   86.04    5.01
   2 -11   3   87.88    3.05
  -2 -11  -4   57.83    4.21
   2 -11   4   60.23    2.47
  -2 -11   4   50.64    3.82
  -2 -11  -5   17.78    2.30
  -2  11  -5   18.50    1.40
  -2 -11   5   19.03    2.36
   2 -11  -5   19.31    1.83
   2 -11   5   17.79    1.32
  -2 -11   6   13.77    2.01
  -2 -11  -6    9.87    1.95
   2 -11   6   11.95    1.17
  -2  11  -6   10.37    1.09
   2 -11  -6   11.15    1.52
  -2 -11   7   58.34    4.28
  -2  11  -7   70.32    3.14
  -2 -11  -7   66.94    4.59
   2 -11   7   65.18    2.97
   2 -11  -7   69.68    3.89
   2 -11  -8   13.37    1.83
  -2 -11   8   10.00    1.77
   2 -11   8   10.56    1.27
  -2  11  -8   11.46    1.31
   2 -11  -9   38.83    3.25
   2 -11   9   38.49    2.58
  -2 -11   9   37.09    3.42
  -2  11  -9   39.97    2.58
  -2  11 -10   12.25    1.49
   2 -11 -10   11.34    1.84
  -2 -11  10    7.93    1.67
   2 -11  10    8.89    1.27
   2 -11  11   64.26    3.79
  -2 -11  11   59.07    4.45
   2 -11 -11   66.48    4.72
  -2  11 -11   65.16    3.67
  -2  11 -12  320.34    9.37
   2 -11  12  317.57    9.77
   2 -11 -12  313.63   11.53
  -2 -11  12  297.45   10.69
   2 -11  13  126.63    6.05
  -2  11 -13  120.56    5.58
  -2 -11  13  120.23    6.54
  -2  11 -14   60.11    4.09
  -2 -11  14   60.03    4.66
   2 -11  14   63.94    4.46
  -2  11 -15    3.07    1.09
   2 -11  15    3.18    1.28
  -2 -11  15    1.75    1.01
   2 -11  16   45.64    4.07
  -2 -11  16   38.93    3.80
  -2  11 -16   43.23    3.69
   2 -11  17  103.47    6.35
  -2 -11  17   96.66    6.23
   2 -11  18    3.44    1.21
  -2 -11  18    2.00    1.30
  -2 -11  19    4.34    1.68
   2 -11  19    0.78    1.14
  -2 -11  20    0.75    1.18
   2 -11  20    2.13    1.32
   2 -11  21  245.52   10.79
  -2 -11  21  230.22   10.60
  -2 -11  22   65.94    5.66
   2 -11  22   81.55    6.12
   2 -11  23   12.71    2.59
  -2 -11  23   11.05    2.43
  -2 -11  24   26.38    3.75
   2 -11  24   35.58    4.39
   2 -11  25  223.94   10.93
  -2 -11  25  215.08   10.99
  -2 -11  26  105.24    7.68
   2 -11  26  117.98    7.93
  -2 -11  27   77.52    6.71
   2 -11  27   77.41    6.49
  -2 -11  28   44.47    5.26
   2 -11  28   52.11    5.31
   2 -11  29   53.91    5.46
  -2 -11  29   40.21    5.03
   2 -11  30    9.60    2.76
  -2 -11  30    2.86    1.81
   2 -11  31   38.72    4.75
  -2 -11  31   29.65    4.57
   2 -11  32    3.81    1.62
  -2 -11  32   -0.27    1.26
  -2 -11  33   11.38    2.70
   2 -11  33   15.05    3.20
   2 -11  34    4.82    2.48
  -2 -11  34   -0.54    1.62
  -2 -11  35  100.71    9.25
   2 -11  35  109.77    8.45
  -2 -11  36   22.34    4.44
  -2 -11  37    6.57    2.72
  -2 -12   0  580.30   15.52
   2 -12   0  562.21   11.41
   2 -12  -1   75.52    3.18
  -2 -12  -1   77.62    5.00
   2 -12   1   70.62    2.94
  -2 -12   1   73.73    4.82
   2 -12  -2   20.33    1.63
  -2 -12   2   20.89    2.50
  -2 -12  -2   21.36    2.63
   2 -12   2   21.56    1.54
   2 -12   3   78.12    3.11
  -2 -12   3   75.43    4.93
   2 -12  -3   80.23    3.57
  -2 -12  -3   75.87    5.01
  -2 -12  -4   18.24    2.43
   2 -12   4   21.08    1.52
  -2 -12   4   18.87    2.37
  -2  12  -5    9.49    1.09
   2 -12   5    7.97    0.97
  -2 -12  -5    9.72    1.97
  -2 -12   5   10.52    1.79
   2 -12  -6    7.27    1.24
  -2 -12  -6    7.71    1.70
  -2 -12   6    5.51    1.39
   2 -12   6    6.85    0.90
  -2  12  -6    8.37    1.07
   2 -12   7    1.47    0.65
  -2 -12  -7    0.80    0.61
  -2  12  -7    1.56    0.56
  -2 -12   7    0.43    0.77
   2 -12  -7    0.74    0.67
  -2 -12   8    6.01    1.50
  -2  12  -8    7.31    1.13
   2 -12   8    9.20    1.18
   2 -12  -8    8.70    1.56
  -2 -12   9   62.72    4.57
   2 -12  -9   58.92    3.98
  -2  12  -9   55.51    3.19
   2 -12   9   60.71    3.25
   2 -12  10  288.32    8.34
  -2  12 -10  293.34    8.54
   2 -12 -10  298.04   10.21
  -2 -12  10  286.88   10.47
  -2 -12  11    6.23    1.50
   2 -12  11    6.09    1.13
  -2  12 -11    6.18    1.19
   2 -12 -11    6.88    1.52
   2 -12  12  102.26    5.07
  -2  12 -12  103.64    4.98
  -2 -12  12   99.75    5.93
  -2 -12  13    9.41    1.84
   2 -12  13   10.84    1.74
  -2  12 -13   10.38    1.65
  -2  12 -14  425.08   12.16
   2 -12  14  418.47   12.47
  -2 -12  14  424.01   13.63
   2 -12  15   25.10    2.80
  -2  12 -15   23.52    2.59
  -2 -12  15   18.35    2.69
   2 -12  16   41.28    3.78
  -2  12 -16   39.28    3.56
  -2 -12  16   42.05    4.11
   2 -12  17   21.70    2.96
  -2 -12  17   21.39    2.91
   2 -12  18   28.18    3.33
  -2 -12  18   31.41    3.64
   2 -12  19   34.25    3.87
  -2 -12  19   41.41    4.20
  -2 -12  20    5.45    1.70
   2 -12  20    5.55    1.69
  -2 -12  21    1.27    1.40
   2 -12  21    2.46    1.33
   2 -12  22   37.95    4.26
  -2 -12  22   41.74    4.47
   2 -12  23   28.59    3.81
  -2 -12  23   32.33    4.09
  -2 -12  24  228.55   11.16
   2 -12  24  254.60   11.55
   2 -12  25   54.93    5.34
  -2 -12  25   56.48    5.68
  -2 -12  26   35.71    4.46
   2 -12  26   32.13    4.21
  -2 -12  27   12.37    2.81
   2 -12  27   12.52    2.78
   2 -12  28  159.52    9.53
  -2 -12  28  138.83    9.32
   2 -12  29    1.27    1.09
  -2 -12  29    2.08    1.69
   2 -12  30   19.43    3.51
  -2 -12  30   11.27    3.00
   2 -12  31    1.93    1.70
  -2 -12  31    5.69    2.20
  -2 -12  32    5.96    2.12
   2 -12  32    8.73    2.33
  -2 -12  33   11.16    2.87
   2 -12  33   11.29    2.94
  -2 -12  34   -0.93    2.14
   2 -12  34    0.59    1.26
  -2 -12  35   20.52    4.23
   2 -12  35   30.40    4.57
  -2 -12  36    5.14    2.36
   2 -12  36    6.71    2.45
  -2 -12  37    2.12    1.71
  -2 -13   0   79.80    5.24
   2 -13   0   82.35    3.47
  -2 -13   1    6.33    1.34
   2 -13  -1    3.60    0.75
   2 -13   1    6.50    0.95
  -2 -13  -1    8.21    1.71
  -2 -13   2    2.25    1.09
   2 -13   2    0.75    0.31
  -2 -13  -2    1.52    0.84
   2 -13  -2    1.13    0.48
   2 -13  -3   53.53    3.00
  -2 -13   3   58.71    4.36
  -2 -13  -3   58.16    4.43
   2 -13   3   52.71    2.68
  -2 -13   4   72.36    4.86
   2 -13  -4   76.17    3.75
  -2 -13  -4   73.85    5.20
   2 -13   4   75.82    3.21
   2 -13   5   51.32    2.61
  -2 -13  -5   45.57    4.01
  -2 -13   5   47.28    3.89
  -2 -13   6   51.04    4.06
  -2  13  -6   51.20    2.81
  -2 -13  -6   49.02    4.11
   2 -13   6   50.22    2.66
  -2 -13   7   -0.22    0.76
  -2 -13  -7    0.23    0.64
  -2  13  -7    0.15    0.36
   2 -13   7    0.31    0.36
   2 -13  -7    0.82    0.71
  -2 -13  -8  138.94    7.23
  -2  13  -8  143.45    5.28
  -2 -13   8  133.95    6.89
   2 -13   8  144.99    5.11
   2 -13  -8  134.09    5.96
   2 -13   9   22.22    1.99
  -2  13  -9   22.59    2.12
  -2 -13   9   19.91    2.80
   2 -13  -9   20.70    2.34
   2 -13  10   51.78    3.17
   2 -13 -10   49.46    3.99
  -2 -13  10   50.57    4.20
  -2  13 -10   51.96    3.31
  -2 -13  11  103.10    6.10
   2 -13  11  107.33    4.88
  -2  13 -11  102.91    4.92
   2 -13 -11   95.61    5.82
  -2  13 -12  137.18    5.97
   2 -13  12  135.85    5.83
  -2 -13  12  142.80    7.41
  -2 -13  13   57.46    4.70
  -2  13 -13   59.93    3.97
   2 -13  13   59.48    3.97
   2 -13  14   87.82    5.12
  -2  13 -14   95.14    5.25
  -2 -13  14   83.16    5.70
  -2  13 -15   28.47    2.92
   2 -13  15   25.12    2.81
  -2 -13  15   32.68    3.61
   2 -13  16  145.45    7.19
  -2 -13  16  156.63    8.15
   2 -13  17    5.21    1.29
  -2 -13  17    5.56    1.58
  -2 -13  18   59.34    5.03
   2 -13  18   62.08    4.97
  -2 -13  19   63.89    5.34
   2 -13  19   63.87    5.18
   2 -13  20   25.57    3.32
  -2 -13  20   23.67    3.35
  -2 -13  21    4.17    1.64
   2 -13  21    0.85    1.19
  -2 -13  22   67.86    5.82
   2 -13  22   67.53    5.74
  -2 -13  23   24.26    3.55
   2 -13  23   24.51    3.55
   2 -13  24    6.59    1.99
  -2 -13  24    6.50    2.07
  -2 -13  25   62.36    5.92
   2 -13  25   66.81    5.82
   2 -13  26  118.74    7.93
  -2 -13  26   98.74    7.60
  -2 -13  27   48.74    5.44
   2 -13  27   49.93    5.24
  -2 -13  28    1.87    1.91
   2 -13  28    3.95    1.82
   2 -13  29    4.51    2.29
  -2 -13  29    1.56    1.28
  -2 -13  30  122.13    9.21
   2 -13  30  147.28    9.24
  -2 -13  31   10.22    2.76
   2 -13  31   10.02    2.47
   2 -13  32    6.49    2.18
  -2 -13  32    2.85    1.84
  -2 -13  33   29.37    4.87
   2 -13  33   32.61    4.55
   2 -13  34   63.23    6.31
  -2 -13  34   54.39    6.71
   2 -13  35    3.91    1.88
  -2 -13  35   -2.36    2.39
   2 -13  36   14.72    3.27
  -2 -13  36    9.50    3.13
  -2 -13  37   27.26    4.98
   2 -13  37   30.50    4.68
  -2 -14   0  115.51    6.47
   2 -14   0  110.19    4.34
   2 -14  -1  138.75    5.02
  -2 -14  -1  130.91    7.03
   2 -14   1  138.77    4.87
  -2 -14   1  130.67    6.95
   2 -14   2  130.64    4.67
  -2 -14  -2  130.42    6.94
   2 -14  -2  122.75    4.82
  -2 -14   2  121.44    6.67
   2 -14   3   98.77    3.93
  -2 -14  -3   93.34    5.91
  -2 -14   3   91.01    5.70
   2 -14  -3   94.19    4.27
   2 -14  -4   28.40    2.33
  -2 -14  -4   26.30    3.10
  -2 -14   4   25.93    3.01
   2 -14   4   24.70    1.88
  -2 -14  -5    0.41    0.86
   2 -14   5    0.93    0.37
  -2 -14   5   -0.36    0.79
   2 -14   6  188.46    5.92
  -2 -14   6  190.73    8.40
  -2 -14  -6  190.56    8.69
  -2  14  -6  196.52    6.28
  -2 -14  -7   10.53    2.15
  -2 -14   7    9.79    1.93
  -2  14  -7   11.67    1.42
   2 -14   7   13.28    1.42
   2 -14  -8  135.22    6.02
  -2  14  -8  137.65    5.39
   2 -14   8  137.03    5.07
  -2 -14  -8  136.79    7.30
  -2 -14   8  139.28    7.08
  -2  14  -9    1.34    0.63
  -2 -14  -9    0.77    1.03
   2 -14  -9    0.98    0.82
   2 -14   9    1.91    0.86
  -2 -14   9    1.34    0.84
   2 -14 -10   17.39    2.29
  -2  14 -10   20.03    2.09
  -2 -14  10   25.36    3.04
   2 -14  10   21.03    2.09
   2 -14  11   33.66    2.70
  -2  14 -11   32.33    2.76
  -2 -14  11   29.96    3.29
   2 -14  12   27.23    2.52
  -2 -14  12   23.23    2.97
  -2  14 -12   21.85    2.39
  -2  14 -13   78.24    4.69
   2 -14  13   85.17    4.70
  -2 -14  13   82.36    5.64
   2 -14  14   31.69    3.01
  -2  14 -14   28.91    2.97
  -2 -14  14   30.44    3.50
  -2  14 -15   75.48    4.96
   2 -14  15   77.90    4.94
  -2 -14  15   77.61    5.72
   2 -14  16   70.96    4.92
  -2 -14  16   81.24    5.86
   2 -14  17   39.02    3.75
  -2 -14  17   36.03    3.95
   2 -14  18   21.85    2.82
  -2 -14  18   22.38    3.23
   2 -14  19    1.31    1.03
  -2 -14  19    1.09    1.00
  -2 -14  20    4.91    2.14
   2 -14  20    0.33    0.95
   2 -14  21   21.02    3.17
  -2 -14  21   19.23    3.17
  -2 -14  22    7.34    2.10
   2 -14  22    4.89    1.89
   2 -14  23   23.32    3.49
  -2 -14  23   20.06    3.37
   2 -14  24   43.99    4.69
  -2 -14  24   51.47    5.32
  -2 -14  25   -0.54    1.26
   2 -14  25    0.37    1.18
  -2 -14  26   70.09    6.42
   2 -14  26   65.63    5.98
   2 -14  27   19.23    3.34
  -2 -14  27   23.53    3.69
  -2 -14  28   28.19    4.30
   2 -14  28   21.92    3.53
   2 -14  29   62.70    6.11
  -2 -14  29   59.16    6.32
   2 -14  30   36.60    4.71
  -2 -14  30   36.33    4.93
  -2 -14  31    3.37    2.02
   2 -14  31    2.85    1.38
  -2 -14  32    1.73    1.78
   2 -14  32   -0.22    1.13
   2 -14  33    0.62    1.22
  -2 -14  33   -3.36    2.72
   2 -14  34   17.95    3.43
  -2 -14  34   12.05    2.89
  -2 -14  35   12.09    3.17
   2 -14  35   12.00    2.93
   2 -14  36    9.29    2.67
  -2 -14  36    4.65    2.12
   2 -14  37   11.34    2.82
   2 -14  38    9.14    2.88
  -2 -15   0   81.80    5.61
   2 -15   0   83.16    3.89
  -2 -15  -1  211.42    9.34
   2 -15   1  207.90    6.47
  -2 -15   1  195.79    8.86
   2 -15  -1  204.35    6.59
   2 -15  -2   92.66    4.29
   2 -15   2   97.73    4.17
  -2 -15  -2   93.84    6.06
  -2 -15   2  110.47    6.44
  -2 -15   3   15.81    2.40
  -2 -15  -3   14.09    2.25
   2 -15  -3   11.53    1.51
   2 -15   3   12.07    1.37
   2 -15   4    7.35    1.03
   2 -15  -4    8.63    1.33
  -2 -15  -4    6.48    1.41
  -2 -15   4    6.45    1.63
  -2 -15   5  354.04   12.38
   2 -15  -5  376.06   10.30
  -2 -15  -5  347.76   12.58
   2 -15   5  363.70    9.19
  -2 -15   6   17.16    2.54
   2 -15   6   21.46    1.89
  -2 -15  -6   19.72    2.81
  -2  15  -7    1.60    0.59
  -2 -15   7    0.18    0.67
  -2 -15  -7    0.76    0.98
   2 -15   7    1.19    0.47
  -2 -15  -8    6.03    1.70
  -2  15  -8    3.45    0.97
   2 -15   8    3.84    0.95
  -2 -15   8    4.81    1.36
  -2 -15  -9  314.30   11.96
  -2 -15   9  306.99   11.36
   2 -15  -9  296.48    9.98
   2 -15   9  312.83    8.78
  -2  15  -9  307.16    9.19
  -2  15 -10   46.56    3.30
  -2 -15  10   37.43    3.79
   2 -15  10   46.53    3.10
  -2 -15 -10   43.76    4.25
   2 -15  11   10.51    1.55
  -2 -15  11    9.59    2.06
  -2  15 -11    6.64    1.27
   2 -15  12  142.18    6.04
  -2 -15  12  140.49    7.50
  -2  15 -12  133.71    6.19
  -2  15 -13  272.73    9.55
   2 -15  13  282.78    9.22
  -2 -15  13  274.32   11.03
   2 -15  14   32.44    3.00
  -2 -15  14   33.97    3.75
  -2  15 -14   29.72    3.02
   2 -15  15    1.80    0.92
  -2 -15  15    3.52    1.31
   2 -15  16   14.90    2.21
  -2 -15  16   15.43    2.70
  -2 -15  17   95.97    6.56
   2 -15  17   84.71    5.60
   2 -15  18    1.09    0.78
  -2 -15  18   -0.85    1.11
  -2 -15  19   50.71    4.91
   2 -15  19   53.17    4.74
   2 -15  20   34.99    3.88
  -2 -15  20   41.02    4.40
   2 -15  21    3.78    1.43
  -2 -15  21    8.54    2.26
   2 -15  22    0.55    1.29
  -2 -15  22    2.89    1.53
   2 -15  23   43.55    4.73
  -2 -15  23   33.43    4.16
  -2 -15  24   73.61    6.42
   2 -15  24   66.00    5.88
   2 -15  25   21.15    3.36
  -2 -15  25   22.59    3.78
  -2 -15  26  149.15    9.50
   2 -15  26  145.00    9.05
   2 -15  27  125.14    8.47
  -2 -15  27  135.17    9.23
   2 -15  28    5.77    2.19
  -2 -15  28    1.01    1.25
   2 -15  29    6.71    2.23
  -2 -15  29    2.37    1.86
  -2 -15  30   -0.12    1.30
   2 -15  30    0.41    0.98
  -2 -15  31   77.48    7.58
   2 -15  31   83.49    7.23
  -2 -15  32    1.88    1.70
   2 -15  32    0.19    1.02
  -2 -15  33   -0.23    1.74
   2 -15  33    1.62    1.51
  -2 -15  34   14.73    3.49
   2 -15  34   10.98    3.13
   2 -15  35   12.94    3.00
  -2 -15  35   16.31    3.68
   2 -15  36    5.06    2.14
   2 -16   0  386.73   10.10
  -2 -16   0  384.64   13.36
  -2 -16  -1   53.10    4.65
   2 -16   1   57.03    3.28
  -2 -16   1   57.28    4.79
   2 -16  -1   54.68    3.30
   2 -16  -2  234.73    7.53
  -2 -16  -2  217.55    9.82
  -2 -16   2  244.81   10.08
   2 -16   2  230.16    7.18
  -2 -16   3   60.20    4.84
   2 -16   3   63.20    3.42
  -2 -16  -3   63.45    5.08
   2 -16  -3   66.00    3.75
  -2 -16   4   61.62    4.94
  -2 -16  -4   66.40    5.29
   2 -16   4   69.14    3.57
   2 -16  -4   67.99    3.95
   2 -16  -5  114.60    5.31
  -2 -16  -5  120.50    7.09
  -2 -16   5  110.72    6.64
   2 -16   5  117.24    4.79
   2 -16   6   46.06    2.94
  -2 -16   6   41.74    3.98
   2 -16  -6   47.36    3.44
  -2 -16  -6   39.20    4.05
  -2 -16  -7    1.84    1.22
  -2 -16   7   -0.71    1.15
   2 -16   7    0.00    0.53
  -2  16  -8    2.27    0.76
  -2 -16   8    3.45    0.91
   2 -16   8    2.84    0.86
  -2 -16  -8    2.81    1.14
  -2  16  -9   55.78    3.64
  -2 -16   9   49.56    4.46
  -2 -16  -9   51.24    4.68
   2 -16   9   53.20    3.34
  -2 -16  10   32.36    3.75
   2 -16  10   25.98    2.42
  -2  16 -10   23.86    2.44
  -2 -16 -10   27.26    3.46
  -2  16 -11    4.98    1.25
   2 -16  11    6.84    1.36
  -2 -16  11    4.02    1.60
  -2 -16 -11    4.01    1.51
  -2  16 -12  261.45    9.34
   2 -16  12  284.41    9.10
  -2 -16  12  285.14   11.35
  -2 -16  13   16.15    2.66
   2 -16  13   15.92    2.17
  -2  16 -13   11.82    2.02
   2 -16  14  385.43   11.56
  -2 -16  14  386.24   13.73
  -2  16 -14  353.47   11.74
   2 -16  15  185.21    7.88
  -2 -16  15  180.03    9.06
   2 -16  16   73.68    4.93
  -2 -16  16   73.43    5.83
   2 -16  17   76.45    5.31
  -2 -16  17   70.88    5.77
  -2 -16  18  112.98    7.36
   2 -16  18  105.27    6.42
   2 -16  19   59.25    4.98
  -2 -16  19   61.52    5.49
  -2 -16  20   20.82    3.35
   2 -16  20   11.47    2.14
   2 -16  21    0.99    0.81
  -2 -16  21    4.37    1.90
   2 -16  22   62.29    5.55
  -2 -16  22   68.16    5.98
   2 -16  23   14.60    2.70
  -2 -16  23   19.28    3.34
  -2 -16  24   39.97    4.88
   2 -16  24   42.42    4.78
   2 -16  25    4.89    1.80
  -2 -16  25    5.04    2.03
   2 -16  26   24.81    3.70
  -2 -16  26   34.02    4.71
   2 -16  27    2.78    1.79
  -2 -16  27    2.76    1.90
  -2 -16  28  245.53   12.90
   2 -16  28  242.96   12.18
  -2 -16  29  124.69    9.24
   2 -16  29  120.71    8.47
   2 -16  30   43.06    5.08
  -2 -16  30   41.96    5.53
   2 -16  31   24.59    4.01
  -2 -16  31   18.14    3.95
   2 -16  32   18.31    3.45
  -2 -16  32   20.26    4.17
  -2 -16  33   11.19    2.72
   2 -16  33   13.17    2.89
   2 -16  34    3.23    2.06
  -2 -16  34   -0.29    2.06
  -2 -16  35   -0.84    2.09
   2 -17   0  183.57    6.63
  -2 -17   0  196.34    9.31
   2 -17   1  614.70   14.03
  -2 -17  -1  593.87   17.81
   2 -17  -1  591.19   14.04
  -2 -17   1  605.37   17.83
  -2 -17   2    0.92    1.04
   2 -17  -2    0.67    0.57
  -2 -17  -2   -1.22    1.22
   2 -17   2   -0.43    0.80
  -2 -17   3   12.05    2.34
   2 -17   3   12.74    1.51
   2 -17  -3   13.36    1.76
  -2 -17  -3   15.20    2.67
   2 -17   4  204.73    6.89
   2 -17  -4  201.24    7.33
  -2 -17  -4  213.07    9.81
  -2 -17   4  198.71    9.35
   2 -17  -5   -0.01    0.50
   2 -17   5   -0.93    0.78
  -2 -17   5   -1.18    1.05
  -2 -17  -5    0.32    0.98
  -2 -17   6  100.33    6.40
   2 -17  -6  101.52    5.21
  -2 -17  -6   97.48    6.61
   2 -17   6   98.66    4.58
  -2 -17  -7    4.38    1.37
  -2 -17   7    8.59    1.94
   2 -17   7    9.48    1.35
   2 -17  -7    8.07    1.56
  -2  17  -8  137.14    6.04
  -2 -17   8  138.89    7.67
  -2 -17  -8  147.01    8.14
   2 -17   8  143.65    5.72
  -2 -17   9   14.77    2.45
   2 -17   9   16.14    1.87
  -2  17  -9   12.40    1.82
  -2 -17  -9   13.56    2.50
  -2 -17  10  110.54    7.04
  -2  17 -10  103.05    5.39
   2 -17  10  111.66    5.18
  -2 -17 -10  110.57    7.15
  -2 -17  11   93.36    6.30
   2 -17  11   98.19    4.98
  -2  17 -11   93.54    5.22
  -2 -17 -11  103.51    6.88
  -2 -17 -12   69.13    5.75
  -2  17 -12   59.04    4.25
   2 -17  12   68.39    4.25
  -2 -17  12   67.99    5.42
  -2  17 -13  373.14   12.09
   2 -17  13  410.79   11.78
  -2 -17  13  397.42   14.10
   2 -17  14  158.04    7.01
  -2 -17  14  145.20    8.20
   2 -17  15  374.48   11.83
  -2 -17  15  377.28   13.85
   2 -17  16   20.05    2.62
  -2 -17  16   24.42    3.32
   2 -17  17   14.98    2.40
  -2 -17  17   17.13    2.98
   2 -17  18  133.80    7.36
  -2 -17  18  138.65    8.37
   2 -17  19    7.59    1.81
  -2 -17  19    5.98    2.07
  -2 -17  20    6.26    1.81
   2 -17  20    6.89    1.83
   2 -17  21    1.96    1.08
  -2 -17  21    2.31    1.61
   2 -17  22   60.24    5.45
  -2 -17  22   64.51    5.92
   2 -17  23   10.68    2.52
  -2 -17  23    5.70    2.00
   2 -17  24    1.83    1.47
  -2 -17  24    3.59    2.02
  -2 -17  25  167.46   10.16
   2 -17  25  147.57    9.27
   2 -17  26   47.26    5.20
  -2 -17  26   51.83    5.70
   2 -17  27  113.00    8.12
  -2 -17  27  125.76    9.04
   2 -17  28   13.85    3.12
  -2 -17  28   13.77    3.23
   2 -17  29   71.44    6.48
  -2 -17  29   83.08    7.59
  -2 -17  30   36.13    5.08
   2 -17  30   40.76    5.01
   2 -17  31   18.10    3.51
  -2 -17  31   14.82    3.48
  -2 -17  32   13.19    3.32
  -2 -17  33   -2.25    2.36
  -2 -17  34    1.61    1.40
   2 -18   0  380.82   10.70
  -2 -18   0  390.63   13.95
  -2 -18  -1  245.28   10.86
   2 -18   1  231.66    7.87
   2 -18  -1  236.70    8.05
  -2 -18   1  246.17   10.70
  -2 -18   2    2.49    0.89
   2 -18  -2    3.88    1.05
   2 -18   2    2.75    0.76
  -2 -18  -2    7.36    2.19
   2 -18   3    3.83    0.89
   2 -18  -3    3.53    1.06
  -2 -18  -3    3.75    1.45
  -2 -18   3    3.11    1.17
   2 -18  -4   23.03    2.38
   2 -18   4   22.15    2.15
  -2 -18  -4   24.02    3.35
  -2 -18   4   21.37    2.99
   2 -18  -5   27.69    2.68
  -2 -18   5   25.60    3.27
  -2 -18  -5   25.21    3.37
   2 -18   5   26.03    2.34
   2 -18   6   11.70    1.59
   2 -18  -6   12.33    1.89
  -2 -18  -6   10.58    2.12
  -2 -18   6   10.62    2.15
  -2 -18   7    8.76    1.84
  -2 -18  -7   12.88    2.36
   2 -18   7   12.98    1.71
   2 -18  -7   15.82    2.13
   2 -18  -8   22.90    2.62
  -2 -18  -8   26.88    3.59
  -2 -18   8   18.20    2.80
   2 -18   8   17.83    1.97
  -2  18  -9    0.95    0.81
  -2 -18  -9   -0.36    0.97
  -2 -18   9    0.35    0.96
   2 -18   9    0.40    0.48
  -2 -18 -10    0.05    1.06
  -2 -18  10   -1.31    1.24
   2 -18  10    0.67    0.69
  -2  18 -10   -0.15    0.61
  -2 -18  11    6.00    1.86
  -2 -18 -11    5.74    2.03
   2 -18  11    5.71    1.37
  -2 -18  12    9.11    2.12
  -2 -18 -12   12.41    2.78
   2 -18  12   11.58    1.85
  -2 -18 -13  310.28   13.06
  -2 -18  13  331.98   12.83
   2 -18  13  328.66   10.51
   2 -18  14   86.74    5.16
  -2 -18  14   87.86    6.45
   2 -18  15   79.74    5.09
  -2 -18  15   83.72    6.28
   2 -18  16   56.96    4.37
  -2 -18  16   57.72    5.30
   2 -18  17   17.85    2.55
  -2 -18  17   13.11    2.53
   2 -18  18   24.36    3.08
  -2 -18  18   27.20    3.72
   2 -18  19   68.31    5.24
  -2 -18  19   68.74    5.92
   2 -18  20   21.09    2.99
  -2 -18  20   16.83    3.16
  -2 -18  21   31.82    4.27
   2 -18  21   33.81    3.91
   2 -18  22   -0.25    1.01
  -2 -18  22    0.69    0.96
   2 -18  23    4.72    1.79
  -2 -18  23    8.23    2.34
   2 -18  24   -1.03    1.03
  -2 -18  24    0.39    1.13
  -2 -18  25   16.89    3.46
   2 -18  25   12.06    2.69
   2 -18  26    2.18    1.58
  -2 -18  26    2.96    2.00
  -2 -18  27  155.41   10.19
   2 -18  27  141.22    9.18
  -2 -18  28   10.95    3.18
  -2 -18  29   23.70    4.09
  -2 -18  30   21.54    4.05
  -2 -18  31   13.53    3.08
  -2 -18  32   -1.47    1.78
  -2 -18  33   20.81    4.22
   2 -19   0 1150.39   23.65
  -2 -19   0 1196.22   28.56
   2 -19  -1    1.47    0.93
  -2 -19   1    3.98    1.92
   2 -19   1    2.54    0.89
  -2 -19  -1    4.35    1.90
   2 -19   2  438.73   11.92
  -2 -19   2  446.69   15.44
  -2 -19  -2  467.07   15.82
   2 -19  -2  443.06   12.33
   2 -19   3  168.45    6.65
  -2 -19  -3  179.80    9.42
   2 -19  -3  169.14    6.99
  -2 -19   3  171.44    8.97
   2 -19   4   14.26    1.78
  -2 -19   4   11.77    2.36
   2 -19  -4   14.44    2.06
  -2 -19  -4   11.39    2.46
  -2 -19   5  126.06    7.60
  -2 -19  -5  117.87    7.58
   2 -19  -5  120.52    5.93
   2 -19   5  126.53    5.59
  -2 -19  -6    2.89    1.55
   2 -19   6    5.02    1.14
  -2 -19   6    2.71    1.11
   2 -19  -6    1.82    1.08
   2 -19  -7   51.34    3.88
  -2 -19  -7   50.57    4.99
  -2 -19   7   47.36    4.59
   2 -19   7   45.35    3.29
  -2 -19   8    2.40    0.97
   2 -19  -8    6.19    1.46
   2 -19   8    5.17    1.14
  -2 -19  -8    3.41    1.33
  -2 -19  -9   80.27    6.29
   2 -19  -9   71.76    4.87
   2 -19   9   72.49    4.23
  -2 -19   9   67.72    5.50
  -2 -19  10    5.12    1.66
  -2 -19 -10    4.77    1.87
   2 -19  10    4.48    1.17
  -2 -19  11   26.92    3.54
   2 -19  11   25.41    2.61
  -2 -19 -11   28.99    3.79
   2 -19  12  374.83   11.35
  -2 -19 -12  360.56   14.30
  -2 -19  12  372.05   13.97
  -2 -19  13    3.78    1.64
   2 -19  13    6.05    1.68
  -2 -19 -13    5.56    2.10
   2 -19  14  555.94   15.11
  -2 -19 -14  542.92   18.38
  -2 -19  14  571.34   18.01
   2 -19  15   29.07    3.13
  -2 -19 -15   20.58    3.51
  -2 -19  15   30.62    3.98
   2 -19  16  190.03    8.37
  -2 -19  16  207.78   10.46
   2 -19  17  166.48    8.02
  -2 -19  17  162.33    9.34
   2 -19  18   22.62    3.07
  -2 -19  18   25.23    3.73
  -2 -19  19   46.83    5.03
   2 -19  19   39.29    4.02
   2 -19  20    0.73    0.95
  -2 -19  20   -0.21    1.05
   2 -19  21   92.71    6.63
  -2 -19  21  106.13    7.79
   2 -19  22    2.95    1.34
  -2 -19  22    5.75    2.05
   2 -19  23   48.78    5.01
  -2 -19  23   51.51    5.57
   2 -19  24   48.24    5.19
  -2 -19  24   50.11    5.54
  -2 -19  25    6.53    2.52
  -2 -19  26  231.60   12.59
  -2 -19  27    3.64    2.35
  -2 -19  28  120.20    9.15
  -2 -19  29   62.97    6.73
  -2 -19  30   45.04    5.79
  -2 -19  31   53.15    6.40
  -2 -19  32   -1.28    1.95
   2 -20   0  102.56    5.33
  -2 -20   0   95.65    6.88
  -2 -20   1   31.69    3.98
   2 -20   1   32.18    2.94
  -2 -20  -1   37.14    4.24
   2 -20  -1   28.42    2.78
   2 -20  -2    6.86    1.47
  -2 -20   2   10.39    2.27
  -2 -20  -2    9.27    2.35
   2 -20   2    7.55    1.51
  -2 -20  -3  114.77    7.63
   2 -20   3  118.78    5.66
  -2 -20   3  120.80    7.72
   2 -20  -3  117.14    5.90
   2 -20   4   -0.68    0.69
   2 -20  -4   -0.29    0.74
  -2 -20   4   -1.35    1.32
  -2 -20  -4    2.76    1.56
  -2 -20  -5   75.96    6.18
  -2 -20   5   70.81    5.86
   2 -20  -5   68.30    4.54
   2 -20   5   85.58    4.64
  -2 -20  -6    9.15    2.29
   2 -20  -6   10.41    1.87
   2 -20   6    9.69    1.54
  -2 -20   6    9.55    2.16
   2 -20  -7   -0.56    0.84
  -2 -20   7   -0.12    1.18
  -2 -20  -7   -0.34    0.91
   2 -20   7    0.13    0.55
   2 -20   8   -0.42    0.70
   2 -20  -8    0.67    0.66
  -2 -20   8   -0.22    1.28
  -2 -20  -8   -0.21    0.84
  -2 -20   9   91.67    6.69
   2 -20  -9   85.34    5.48
   2 -20   9   92.21    4.98
  -2 -20  -9  101.05    7.32
  -2 -20  10    1.54    1.11
   2 -20  10    2.14    0.94
   2 -20 -10    2.20    1.08
  -2 -20 -10    0.17    1.10
  -2 -20  11   43.37    4.65
   2 -20 -11   53.26    4.37
   2 -20  11   53.59    3.90
  -2 -20 -11   51.76    5.35
  -2 -20  12    0.32    1.26
   2 -20  12    0.94    0.79
  -2 -20 -12    1.05    1.16
  -2 -20  13   23.97    3.37
  -2 -20 -13   21.83    3.50
   2 -20  13   21.67    2.62
  -2 -20  14   13.66    2.63
   2 -20  14   13.11    2.15
  -2 -20 -14   10.56    2.46
  -2 -20  15    7.81    2.12
   2 -20  15    5.28    1.44
  -2 -20 -15    5.43    2.15
   2 -20  16   37.43    3.61
  -2 -20 -16   46.66    5.22
  -2 -20  16   33.05    4.22
   2 -20  17   18.03    2.59
  -2 -20  17   20.05    3.21
   2 -20  18    0.87    0.78
  -2 -20  18    0.15    1.05
   2 -20  19   -0.96    1.38
  -2 -20  19    1.05    1.25
  -2 -20  20    0.43    1.17
  -2 -20  21    6.41    2.17
  -2 -20  22   31.81    4.91
  -2 -20  23    6.28    2.19
  -2 -20  24    1.53    1.66
  -2 -20  25    4.21    1.97
  -2 -20  26    4.70    2.22
  -2 -20  27    2.04    1.96
  -2 -20  28    1.86    1.79
  -2 -20  29    8.77    2.75
  -2 -20  30   14.03    3.47
  -2 -20  31   -1.21    1.51
  -2 -20  32    6.23    2.27
   2 -21   0   75.33    4.67
  -2 -21   0   73.79    6.18
   2 -21   1  198.37    7.83
   2 -21  -1  186.04    7.76
  -2 -21   1  201.59   10.34
  -2 -21  -1  200.76   10.38
  -2 -21   2  223.66   10.97
   2 -21   2  222.46    8.28
   2 -21  -2  219.88    8.58
  -2 -21  -2  219.17   10.97
   2 -21  -3   13.34    2.05
   2 -21   3   19.44    2.32
  -2 -21  -3   18.26    3.17
  -2 -21   3   12.64    2.56
  -2 -21  -4  144.75    8.85
   2 -21  -4  126.13    6.37
  -2 -21   4  118.09    7.75
   2 -21   4  125.67    5.98
   2 -21   5   20.92    2.38
  -2 -21   5   22.02    3.18
   2 -21  -5   21.39    2.63
  -2 -21  -5   21.82    3.42
  -2 -21  -6    2.94    1.35
   2 -21  -6    2.74    1.14
  -2 -21   6    1.70    1.10
   2 -21   6    0.12    0.83
  -2 -21  -7    2.11    1.56
  -2 -21   7    2.12    1.55
   2 -21  -7    1.75    1.10
   2 -21   7    2.76    0.88
  -2 -21   8   58.82    5.29
   2 -21   8   56.56    3.95
  -2 -21  -8   48.41    5.06
   2 -21  -8   52.13    4.24
   2 -21  -9   29.49    3.28
  -2 -21   9   31.61    3.90
  -2 -21  -9   27.62    3.89
   2 -21   9   27.96    2.78
  -2 -21  10   68.96    5.91
   2 -21 -10   61.80    4.76
   2 -21  10   58.27    4.08
  -2 -21 -10   61.63    5.86
  -2 -21  11   59.41    5.49
  -2 -21 -11   56.06    5.50
   2 -21  11   61.46    4.27
   2 -21 -11   57.89    4.64
  -2 -21  12   78.50    6.28
  -2 -21 -12   68.25    6.19
   2 -21  12   82.22    5.04
   2 -21 -12   69.76    5.32
  -2 -21 -13  298.03   13.43
   2 -21  13  312.43   10.71
  -2 -21  13  318.62   13.25
  -2 -21 -14   45.91    5.22
   2 -21  14   51.04    4.12
  -2 -21  14   51.65    5.18
  -2 -21 -15  101.84    7.80
  -2 -21  15  116.07    7.86
  -2 -21 -16  142.91    9.33
  -2 -21  16  150.56    9.09
  -2 -21  17    2.64    1.47
  -2 -21 -17    1.76    1.67
  -2 -21  18   71.70    6.39
  -2 -21 -18   71.24    6.70
  -2 -21  19    1.55    1.40
  -2 -21  20   33.03    4.32
  -2 -21  21    8.15    2.55
  -2 -21  22  118.15    8.50
  -2 -21  23   -0.33    1.13
  -2 -21  24    6.96    2.35
  -2 -21  25   50.63    5.78
  -2 -21  26    6.63    2.66
  -2 -21  27  117.87    9.21
  -2 -21  28   81.85    7.69
  -2 -21  29   16.68    3.60
  -2 -21  30   78.55    7.72
  -2 -21  31    0.96    1.21
  -2 -22   0  280.53   12.74
   2 -22   0  290.66   10.12
  -2 -22  -1   10.45    2.63
   2 -22   1   12.60    1.99
  -2 -22   1    6.67    2.09
   2 -22  -1   11.85    1.93
   2 -22   2  170.62    7.34
  -2 -22   2  176.79    9.84
   2 -22  -2  162.14    7.42
  -2 -22  -2  164.78    9.59
   2 -22  -3    5.22    1.47
   2 -22   3    4.51    1.25
  -2 -22  -3    4.46    1.73
  -2 -22   3    4.09    1.41
   2 -22   4   15.31    2.05
  -2 -22  -4   14.27    2.94
  -2 -22   4   15.18    2.83
   2 -22  -4   14.37    2.23
   2 -22  -5    6.28    1.49
  -2 -22  -5    8.73    2.26
  -2 -22   5    4.46    1.48
   2 -22   5    1.79    0.78
   2 -22  -6   34.04    3.38
   2 -22   6   30.61    2.93
  -2 -22  -6   35.93    4.43
  -2 -22   6   34.16    4.20
  -2 -22  -7   12.21    2.87
   2 -22  -7   14.16    2.26
  -2 -22   7   16.19    2.89
   2 -22   7   13.23    1.90
  -2 -22  -8   56.95    5.61
  -2 -22   8   56.40    5.38
   2 -22  -8   53.76    4.43
  -2 -22   9    0.29    1.21
  -2 -22  -9    3.26    1.67
   2 -22  -9    1.43    0.75
   2 -22 -10   -0.29    0.81
  -2 -22 -10    0.04    1.29
  -2 -22  10    2.42    1.13
  -2 -22  11    0.13    0.99
   2 -22 -11    0.13    0.91
  -2 -22 -11    0.49    1.32
  -2 -22 -12   50.94    5.52
   2 -22 -12   44.29    4.24
  -2 -22  12   46.95    5.03
  -2 -22  13    2.31    1.63
  -2 -22 -13    1.52    1.23
   2 -22 -13    1.43    1.20
  -2 -22 -14  208.38   11.39
  -2 -22  14  215.01   11.00
  -2 -22 -15   63.48    6.31
  -2 -22  15   74.49    6.39
  -2 -22 -16  168.15   10.34
  -2 -22  16  177.87   10.08
  -2 -22 -17    1.75    1.34
  -2 -22  17    4.83    2.19
  -2 -22 -18    9.96    2.47
  -2 -22  18   10.19    2.42
  -2 -22 -19   28.71    4.32
  -2 -22  19   26.16    4.01
  -2 -22  20   14.86    3.15
  -2 -22 -20   16.56    3.44
  -2 -22  21   18.77    3.45
  -2 -22  22   29.38    4.30
  -2 -22  23    3.08    2.15
  -2 -22  24    0.94    1.51
  -2 -22  25   16.93    3.48
  -2 -22  26   11.71    3.13
  -2 -22  27    5.01    2.32
  -2 -22  28   52.24    6.13
  -2 -22  29   13.06    3.12
  -2 -22  30   57.72    6.84
  -2 -23   0    7.10    2.28
  -2 -23  -1   23.46    3.72
  -2 -23   1   26.19    3.69
  -2 -23  -2   14.38    2.98
   2 -23  -2   14.83    2.23
  -2 -23   2   13.29    2.69
  -2 -23   3   82.82    6.71
   2 -23  -3   84.00    5.39
  -2 -23  -3   84.67    6.92
   2 -23  -4   15.30    2.39
  -2 -23  -4   16.18    3.18
  -2 -23   4   14.48    2.87
  -2 -23  -5   45.81    5.19
  -2 -23   5   47.03    5.15
   2 -23  -5   54.02    4.30
   2 -23  -6    2.88    1.24
  -2 -23  -6    2.62    1.83
  -2 -23   6   -0.92    1.64
  -2 -23   7    9.63    2.41
   2 -23  -7    7.22    1.70
  -2 -23  -7    6.62    1.93
  -2 -23  -8   27.12    4.05
   2 -23  -8   24.04    3.02
  -2 -23   8   31.80    4.10
   2 -23  -9   84.83    5.75
  -2 -23   9   90.76    7.09
  -2 -23  -9   93.85    7.39
  -2 -23  10   11.09    2.51
  -2 -23 -10   13.03    3.05
   2 -23 -10   12.40    2.30
   2 -23 -11   47.82    4.44
  -2 -23 -11   53.83    5.59
  -2 -23  11   47.98    5.02
   2 -23 -12   58.67    5.01
  -2 -23 -12   66.65    6.42
  -2 -23  12   65.27    5.93
  -2 -23 -13   19.06    3.51
   2 -23 -13   18.26    2.93
  -2 -23  13   19.71    3.39
  -2 -23 -14    2.34    1.80
   2 -23 -14    1.45    1.31
  -2 -23  14    2.85    1.26
   2 -23 -15   81.66    6.22
  -2 -23 -15   77.35    7.06
  -2 -23  15   90.40    7.28
  -2 -23 -16   32.82    4.67
  -2 -23  16   26.44    4.03
  -2 -23 -17   77.79    7.22
  -2 -23  17   77.90    6.75
  -2 -23 -18    4.58    1.77
  -2 -23  18    5.15    2.27
  -2 -23 -19    0.64    1.31
  -2 -23  19    4.87    2.08
  -2 -23 -20   21.01    3.79
  -2 -23  20   20.14    3.50
  -2 -23 -21   39.69    5.46
  -2 -23  21   42.99    5.22
  -2 -23 -22   19.20    3.92
  -2 -23  22   20.91    3.78
  -2 -23  23   55.39    6.02
  -2 -23  24    0.59    1.76
  -2 -23  25   16.05    3.54
  -2 -23  26   45.95    5.73
  -2 -23  27   10.04    2.85
  -2 -23  28    1.65    1.27
  -2 -24   0    8.47    2.51
  -2 -24  -1  225.19   11.79
  -2 -24   1  239.66   12.07
  -2 -24  -2   38.60    4.72
  -2 -24   2   39.93    4.76
  -2 -24  -3   34.82    4.57
  -2 -24   3   35.43    4.41
  -2 -24   4    3.15    1.26
  -2 -24  -4    9.53    2.39
  -2 -24  -5    9.85    2.45
  -2 -24   5   10.49    2.52
  -2 -24   6   29.24    4.14
  -2 -24  -6   29.34    4.19
  -2 -24   7    8.69    2.29
  -2 -24  -7    6.96    2.16
  -2 -24   8   23.45    3.57
  -2 -24  -8   14.81    3.14
  -2 -24  -9    5.12    1.97
  -2 -24   9    3.41    1.55
  -2 -24 -10    6.07    2.08
  -2 -24  10    5.55    1.83
  -2 -24  11    7.09    2.03
  -2 -24 -11   10.30    2.70
  -2 -24 -12    9.86    2.53
  -2 -24  12    7.22    2.25
  -2 -24 -13   89.21    7.65
  -2 -24  13  101.27    7.70
  -2 -24  14    5.96    2.37
  -2 -24 -14    4.20    2.09
  -2 -24 -15  182.69   11.17
  -2 -24  15  206.18   11.23
  -2 -24 -16   21.62    3.90
  -2 -24  16   17.48    3.18
  -2 -24 -17   -1.42    1.31
  -2 -24  17   -0.64    1.33
  -2 -24 -18   27.12    4.18
  -2 -24  18   32.08    4.53
  -2 -24 -19   12.63    3.19
  -2 -24  19   18.35    3.49
  -2 -24 -20   12.13    3.03
  -2 -24  20   13.22    3.00
  -2 -24 -21    2.71    2.03
  -2 -24  21    3.78    1.61
  -2 -24  22    5.40    2.27
  -2 -24 -22    3.85    2.06
  -2 -24 -23   14.65    3.54
  -2 -24  23   20.16    3.78
  -2 -24  24   22.21    4.04
  -2 -24 -24   23.13    4.45
  -2 -24  25    4.42    2.10
  -2 -24  26    0.83    1.94
  -2 -24  27   22.75    4.28
  -2 -25   0   -0.67    1.33
  -2 -25  -1    2.01    1.46
  -2 -25   1    0.94    0.99
  -2 -25  -2    5.91    2.19
  -2 -25   2    6.87    2.41
  -2 -25  -3   34.17    4.51
  -2 -25   3   38.27    4.77
  -2 -25   4   52.83    5.58
  -2 -25  -4   47.88    5.50
  -2 -25  -5   28.59    4.13
  -2 -25   5   27.79    3.98
  -2 -25   6   47.95    5.36
  -2 -25  -6   43.70    5.24
  -2 -25   7    8.95    2.62
  -2 -25  -7    2.76    1.73
  -2 -25   8   45.54    5.16
  -2 -25  -8   48.11    5.48
  -2 -25   9   52.37    5.55
  -2 -25  -9   53.16    5.95
  -2 -25  10   95.77    7.46
  -2 -25 -10   87.97    7.49
  -2 -25 -11   -3.48    1.91
  -2 -25  11   -1.06    1.46
  -2 -25  12    0.47    0.96
  -2 -25 -12    2.45    1.63
  -2 -25  13   14.93    3.09
  -2 -25 -13   11.25    2.85
  -2 -25 -14    6.38    2.35
  -2 -25  14    3.91    1.79
  -2 -25  15   10.71    2.68
  -2 -25 -15    7.49    2.53
  -2 -25 -16   15.36    3.59
  -2 -25  16   13.31    2.81
  -2 -25 -17   53.03    6.16
  -2 -25  17   55.79    5.96
  -2 -25 -18   17.55    3.63
  -2 -25  18   13.40    3.09
  -2 -25  19   -0.24    1.42
  -2 -25 -19    0.26    1.08
  -2 -25 -20    1.36    1.46
  -2 -25  20    2.18    1.52
  -2 -25 -21   23.45    4.32
  -2 -25  21   27.51    4.35
  -2 -25 -22   15.73    3.65
  -2 -25  22   16.48    3.50
  -2 -25 -23   12.38    3.39
  -2 -25  23   13.40    3.18
  -2 -25  24   36.95    5.20
  -2 -25  25    7.58    2.51
  -2 -25  26   -1.83    2.35
  -2 -26   0   54.36    5.80
  -2 -26   1    1.69    1.51
  -2 -26  -1    0.48    1.06
  -2 -26   2   13.07    3.12
  -2 -26  -2   13.91    3.17
  -2 -26  -3    0.69    1.08
  -2 -26   3   -0.41    1.17
  -2 -26  -4   36.97    4.88
  -2 -26   4   28.46    4.30
  -2 -26   5    4.17    1.91
  -2 -26  -5    4.04    1.84
  -2 -26  -6    4.92    1.99
  -2 -26   6    3.90    1.64
  -2 -26  -7    1.11    1.39
  -2 -26   7    4.94    2.14
  -2 -26   8    1.37    1.38
  -2 -26  -8    0.90    1.30
  -2 -26   9    1.91    1.56
  -2 -26  -9    0.08    1.17
  -2 -26 -10   29.55    4.51
  -2 -26  10   28.65    4.12
  -2 -26 -11    4.14    2.02
  -2 -26  11    2.22    1.31
  -2 -26 -12    8.45    2.48
  -2 -26  12    8.98    2.37
  -2 -26 -13   17.53    3.57
  -2 -26  13    8.80    2.47
  -2 -26 -14   12.81    3.10
  -2 -26  14   11.44    2.64
  -2 -26 -15    2.52    1.87
  -2 -26  15    4.58    1.68
  -2 -26 -16   18.52    3.76
  -2 -26  16   15.24    3.11
  -2 -26 -17    8.29    2.55
  -2 -26  17    5.42    1.62
  -2 -26 -18   13.86    3.42
  -2 -26  18   15.20    3.19
  -2 -26 -19    0.40    1.66
  -2 -26  19    3.35    1.83
  -2 -26 -20    2.66    3.14
  -2 -26  20    1.99    1.32
  -2 -26  21   16.44    3.43
  -2 -26 -21   12.80    3.14
  -2 -26  22    9.39    2.75
  -2 -26  23    1.84    1.59
  -2 -26  24    9.01    2.75
  -2 -27   0   59.87    6.17
  -2 -27   1    5.27    2.25
  -2 -27  -1    3.56    1.91
  -2 -27  -2   -1.50    1.88
  -2 -27   2    2.93    1.71
  -2 -27  -3    9.11    2.54
  -2 -27   3   10.70    2.83
  -2 -27   4  109.36    8.35
  -2 -27  -4  106.73    8.41
  -2 -27  -5   48.21    5.77
  -2 -27   5   49.95    5.71
  -2 -27  -6    2.48    1.64
  -2 -27   6    1.29    1.31
  -2 -27   7   -1.88    1.57
  -2 -27  -7   -1.24    1.58
  -2 -27   8   28.72    4.36
  -2 -27  -8   29.34    4.52
  -2 -27   9   56.55    5.99
  -2 -27  -9   67.55    6.96
  -2 -27 -10   27.16    4.45
  -2 -27  10   20.89    3.67
  -2 -27 -11   14.07    3.30
  -2 -27  11   10.53    2.76
  -2 -27  12    6.38    2.32
  -2 -27 -12    1.84    1.23
  -2 -27  13    1.05    1.53
  -2 -27 -13    1.81    1.80
  -2 -27  14    4.66    1.86
  -2 -27 -14    6.04    2.08
  -2 -27 -15   -0.11    1.16
  -2 -27  15    2.98    2.00
  -2 -27 -16    9.52    2.81
  -2 -27  16    7.41    2.63
  -2 -27 -17    8.88    2.81
  -2 -27  17   10.67    2.86
  -2 -27  18   68.90    6.88
  -2 -27 -18   68.40    7.19
  -2 -27 -19   13.03    3.41
  -2 -27  19   11.67    2.80
  -2 -27  20    0.07    1.38
  -2 -27  21    1.71    1.85
  -2 -27  22   31.84    4.82
  -2 -27  23   27.20    4.58
  -2 -28   0   68.88    6.88
  -2 -28   1   64.33    6.47
  -2 -28  -1   66.24    6.74
  -2 -28   2   24.19    4.11
  -2 -28  -2   31.71    4.67
  -2 -28   3   30.38    4.55
  -2 -28  -3   30.84    4.52
  -2 -28  -4    2.62    1.28
  -2 -28   4   -0.30    1.31
  -2 -28  -5    4.39    1.94
  -2 -28   5    2.45    1.50
  -2 -28   6   -0.64    1.29
  -2 -28  -6   -1.51    1.62
  -2 -28   7    1.20    1.31
  -2 -28  -7   -1.15    1.52
  -2 -28   8    3.88    1.85
  -2 -28  -8    5.42    2.29
  -2 -28   9   18.03    3.68
  -2 -28  -9   14.62    3.36
  -2 -28  10    0.53    1.08
  -2 -28 -10    1.68    2.06
  -2 -28 -11   26.28    4.48
  -2 -28  11   23.77    4.02
  -2 -28  12   -0.26    1.07
  -2 -28 -12   -0.47    1.08
  -2 -28  13    4.12    2.02
  -2 -28 -13    4.82    2.20
  -2 -28 -14   28.35    4.64
  -2 -28  14   29.60    4.48
  -2 -28 -15   51.49    6.22
  -2 -28  15   55.63    6.27
  -2 -28 -16   73.46    7.44
  -2 -28  16   67.65    6.79
  -2 -28 -17   28.10    4.93
  -2 -28  17   26.87    4.36
  -2 -28  18    3.64    1.92
  -2 -28  19    2.07    1.41
  -2 -28  20    3.02    1.86
  -2 -28  21    0.97    1.50
  -2 -29   0   25.92    4.34
  -2 -29   1   24.72    4.15
  -2 -29  -1   21.73    4.03
  -2 -29   2   30.67    4.55
  -2 -29  -2   29.07    4.62
  -2 -29   3   55.79    6.11
  -2 -29  -3   52.07    6.00
  -2 -29   4   17.46    3.64
  -2 -29  -4   21.04    3.80
  -2 -29   5   58.80    6.32
  -2 -29  -5   67.10    6.98
  -2 -29  -6    1.06    1.53
  -2 -29   6   -0.25    1.25
  -2 -29   7    5.41    2.25
  -2 -29  -7    4.65    2.20
  -2 -29  -8    4.13    2.41
  -2 -29   8    3.30    1.89
  -2 -29   9   51.41    5.85
  -2 -29  -9   49.12    6.17
  -2 -29  10    7.41    2.28
  -2 -29 -10   13.30    3.22
  -2 -29 -11    6.25    2.15
  -2 -29  11    8.85    2.62
  -2 -29  12   27.46    4.35
  -2 -29 -12   20.81    3.91
  -2 -29  13   22.63    3.97
  -2 -29 -13   22.35    4.22
  -2 -29  14    8.10    2.46
  -2 -29 -14   14.13    3.41
  -2 -29 -15    7.77    2.65
  -2 -29  15    3.60    1.94
  -2 -29  16   15.08    3.26
  -2 -29  17   51.09    6.09
  -2 -29  18    8.80    2.64
  -2 -30   0   68.68    7.17
  -2 -30   1   26.84    4.56
  -2 -30  -1   30.79    4.88
  -2 -30   2    3.13    1.15
  -2 -30  -2    8.39    2.75
  -2 -30   3   17.69    3.68
  -2 -30  -3   13.88    3.27
  -2 -30   4    2.35    1.19
  -2 -30  -4    4.06    1.59
  -2 -30   5   16.35    3.56
  -2 -30  -5   23.79    4.20
  -2 -30   6   15.63    3.37
  -2 -30  -6   20.51    3.91
  -2 -30   7    1.39    1.34
  -2 -30  -7   -2.03    1.94
  -2 -30  -8    8.78    2.65
  -2 -30   8    9.97    2.88
  -2 -30   9    9.83    2.84
  -2 -30  -9   12.39    3.19
  -2 -30 -10   12.18    3.69
  -2 -30  10    6.36    2.11
  -2 -30  11    4.03    2.19
  -2 -30 -11    4.24    2.04
  -2 -30 -12    2.19    1.67
  -2 -30  12   -1.87    1.71
  -2 -30  13   13.23    3.21
  -2 -30  14   39.70    5.36
  -2 -31   0    2.63    2.42
  -2 -31   1   55.94    6.47
  -2 -31  -1   57.69    6.45
  -2 -31   2    3.54    2.08
  -2 -31  -2    4.52    2.33
  -2 -31   3   30.21    5.11
  -2 -31  -3   23.42    4.42
  -2 -31   4   65.93    6.96
  -2 -31  -4   65.20    7.00
  -2 -31   5   -1.05    1.60
  -2 -31  -5    0.87    1.36
  -2 -31   6    8.91    2.62
  -2 -31  -6    5.17    1.90
  -2 -31  -7    7.49    2.70
  -2 -31   7   -1.25    1.94
  -2 -31  -8   31.10    5.03
  -3   0   0    0.22    0.29
   3   0   0    0.55    0.43
   3   0   1    0.42    0.39
   3   0  -1    0.02    0.30
  -3   0  -1    0.31    0.44
  -3   0   1   -0.25    0.32
   3   0  -2  213.14    6.44
  -3   0   2  210.40    6.10
  -3   0  -2  195.87    5.87
   3   0  -3   -0.08    0.32
  -3   0   3   -0.74    0.53
  -3   0  -3    0.51    0.50
   3   0  -4   64.42    3.42
  -3   0  -4   62.04    3.10
  -3   0   4   61.67    3.14
  -3   0   5    0.65    0.57
   3   0  -5    0.68    0.47
  -3   0   6 6214.84   95.97
   3   0  -6 6194.30   96.73
   3   0  -7    2.55    1.04
  -3   0   7    1.29    0.77
   3   0  -8 5633.53   88.95
  -3   0   8 5601.48   88.13
   3   0  -9    1.03    0.84
  -3   0   9    0.28    0.73
   3   0 -10    3.44    0.98
  -3   0  10    5.01    1.11
  -3   0  11    0.18    0.64
   3   0 -11    0.28    0.53
  -3   0  12  450.34   12.36
   3   0 -12  422.89   12.70
  -3   0  13    0.52    0.79
  -3   0  14  105.30    5.57
  -3   0 -14  106.91    5.58
  -3   0  15    0.18    0.57
  -3   0  16   63.47    4.62
  -3   0  17    0.96    1.16
  -3   0  18  440.45   14.08
  -3   0  19    0.38    1.40
  -3   0  20 2045.91   41.45
  -3   0  21    2.61    2.18
  -3   0  22 1871.61   40.06
  -3   0  23    1.41    1.62
  -3   0  24   47.45    5.06
  -3   0  25   -1.97    1.79
  -3   0  26   85.47    6.99
  -3   0  27    0.52    1.37
  -3   0  28    3.79    1.93
  -3   0  29    0.73    1.07
  -3   0  30    5.92    2.14
  -3   0  31    0.40    1.71
  -3   0  32  323.01   15.07
  -3   0  33    1.68    2.08
  -3   0  34  518.30   20.10
  -3   0  35    1.65    2.49
  -3   0  36  191.54   12.06
  -3   0  37    5.75    2.89
  -3   0  38   21.51    4.31
  -3   0  39    2.74    2.42
   3   1   0    0.38    0.49
  -3  -1   0    0.41    0.41
   3  -1   0   -0.02    0.40
  -3   1   0   -0.08    0.43
  -3  -1  -1   49.78    2.76
   3   1   1   50.42    2.95
  -3   1   1   43.30    2.43
   3  -1  -1   44.33    2.50
  -3  -1   1   49.54    2.80
   3   1  -1   49.40    2.95
  -3   1  -1   52.15    2.53
  -3  -1  -2    5.67    0.96
  -3   1   2    5.10    0.92
   3  -1  -2    5.72    0.95
  -3  -1   2    4.33    0.93
   3   1  -2    5.52    1.06
  -3   1  -2    6.34    0.89
  -3  -1   3   25.61    2.05
   3   1  -3   22.17    2.04
   3  -1  -3   24.44    1.91
  -3   1  -3   25.52    1.79
  -3   1   3   24.34    1.78
  -3  -1  -3   22.00    1.91
  -3   1   4   12.15    1.29
   3   1  -4   13.93    1.69
  -3  -1  -4   13.35    1.51
  -3  -1   4   12.08    1.43
   3  -1  -4   15.24    1.58
  -3   1  -4   14.28    1.36
   3  -1  -5  490.70   11.45
   3   1  -5  509.09   12.33
  -3   1   5  501.21   11.08
  -3  -1   5  481.71   11.54
  -3   1   6  822.89   16.55
   3  -1  -6  837.72   17.06
  -3  -1   6  830.36   17.05
   3   1  -6  834.21   17.84
   3  -1  -7  191.61    6.59
   3   1  -7  187.61    6.92
  -3   1   7  186.93    6.20
  -3  -1   7  188.40    6.50
   3  -1  -8  356.32    9.89
   3   1  -8  351.31   10.24
  -3   1   8  355.56    9.47
  -3  -1   8  353.22    9.80
   3  -1  -9   33.35    2.74
  -3   1   9   33.45    2.62
   3   1  -9   34.61    2.97
  -3  -1   9   35.01    2.85
   3  -1 -10    5.20    1.19
   3   1 -10    4.52    1.26
  -3   1  10    6.08    1.35
  -3  -1  10    5.44    1.28
   3   1 -11   36.88    3.24
  -3   1  11   36.24    2.94
  -3  -1  11   40.73    3.13
   3  -1 -11   32.94    3.08
  -3   1  12   14.91    1.96
  -3  -1  12   18.39    2.21
   3  -1 -12   16.52    2.19
  -3   1 -12   18.20    2.10
  -3   1 -13    3.86    1.09
  -3   1  13    3.18    1.09
  -3  -1  13    3.47    1.16
  -3   1 -14   27.62    2.77
  -3  -1  14   27.24    2.77
  -3   1  14   22.94    2.66
  -3   1 -15   33.34    3.23
  -3  -1  15   31.22    3.13
  -3   1  15   30.63    3.13
  -3   1  16    9.45    1.86
  -3  -1  16    9.36    1.79
  -3   1  17   91.65    5.85
  -3  -1  17   92.07    5.68
  -3  -1  18    4.48    1.37
  -3   1  18    5.27    1.36
  -3   1  19  211.24    9.67
  -3  -1  19  201.83    9.27
  -3  -1  20  473.06   15.39
  -3   1  20  458.25   15.54
  -3   1  21  189.98    9.63
  -3  -1  21  180.61    9.23
  -3   1  22   16.27    3.11
  -3  -1  22   19.61    3.18
  -3   1  23   10.08    2.32
  -3  -1  23    9.46    2.13
  -3   1  24    1.14    1.37
  -3  -1  24    0.95    1.04
  -3   1  25   19.71    3.39
  -3  -1  25   19.15    3.14
  -3  -1  26   23.90    3.69
  -3   1  26   22.69    3.64
  -3   1  27   30.98    4.35
  -3  -1  27   29.87    4.13
  -3   1  28   23.67    3.77
  -3  -1  28   19.61    3.65
  -3   1  29   12.00    2.79
  -3  -1  29   14.24    3.08
  -3   1  30    1.86    1.36
  -3  -1  30    2.12    1.96
  -3   1  31    6.17    2.57
  -3  -1  31    6.80    2.67
  -3  -1  32   14.98    3.25
  -3   1  32   15.40    3.27
  -3   1  33   31.00    4.72
  -3  -1  33   27.49    4.59
  -3  -1  34   82.06    7.90
  -3   1  34   92.38    8.14
  -3  -1  35   43.40    5.80
  -3   1  35   37.86    5.21
  -3  -1  36    2.03    1.48
  -3   1  36   -0.23    1.16
  -3   1  37    1.09    1.35
  -3  -1  37    6.59    2.86
  -3   1  38    2.60    1.91
  -3  -1  38    6.59    2.81
  -3   1  39   -1.63    1.48
  -3  -1  39    7.54    2.94
  -3   2   0    0.00    0.27
  -3  -2   0    0.63    0.48
   3  -2   0    0.16    0.32
   3   2   0    0.73    0.58
  -3   2   1  133.05    4.23
   3   2   1  137.23    5.30
   3  -2  -1  142.04    4.42
  -3  -2  -1  139.62    5.18
  -3   2  -1  136.48    4.12
   3   2  -1  139.86    5.40
  -3  -2   1  138.23    5.14
  -3   2  -2   97.46    3.34
  -3  -2  -2   94.07    4.18
   3   2  -2   96.00    4.48
  -3  -2   2   95.45    4.23
   3  -2  -2   98.70    3.71
  -3   2   2   97.08    3.51
  -3  -2  -3   73.85    3.71
  -3  -2   3   79.82    3.84
   3   2  -3   72.90    3.98
   3  -2  -3   81.12    3.45
  -3   2  -3   79.47    3.01
  -3   2   3   73.43    3.09
  -3  -2   4  171.48    6.06
   3  -2  -4  186.53    5.68
  -3  -2  -4  174.33    6.05
  -3   2  -4  173.18    4.97
  -3   2   4  174.46    5.26
   3   2  -4  179.43    6.59
  -3  -2   5 1378.86   25.72
   3  -2  -5 1382.34   24.72
  -3  -2  -5 1377.46   25.45
  -3   2   5 1400.84   24.24
   3   2  -5 1354.41   26.42
   3  -2  -6  286.94    7.98
   3   2  -6  291.76    9.09
  -3   2   6  287.43    7.67
  -3  -2   6  284.15    8.48
   3   2  -7 3583.96   59.58
   3  -2  -7 3596.33   57.85
  -3   2   7 3590.80   57.40
  -3  -2   7 3533.45   58.53
   3   2  -8   58.96    3.91
  -3   2   8   61.63    3.45
  -3  -2   8   59.42    3.67
   3  -2  -8   62.30    3.57
  -3   2   9 1074.52   21.27
  -3  -2   9 1126.76   22.11
   3  -2  -9 1042.07   21.60
   3   2  -9 1050.11   22.49
   3   2 -10   59.50    4.04
  -3  -2  10   66.96    4.05
  -3   2  10   62.15    3.77
   3  -2 -10   59.07    3.86
   3   2 -11  176.37    7.70
  -3   2 -11  213.53    7.14
  -3  -2  11  207.18    7.59
  -3   2  11  213.64    7.59
   3  -2 -11  196.58    7.72
  -3   2 -12   12.37    1.73
  -3   2  12   11.25    1.71
  -3  -2  12   11.40    1.77
   3  -2 -12   10.38    1.81
  -3   2 -13    7.77    1.57
  -3   2  13    9.25    1.70
  -3  -2  13    7.77    1.53
   3  -2 -13    9.62    1.84
  -3   2  14  122.68    6.31
  -3   2 -14  117.14    5.93
  -3  -2  14  120.86    6.09
  -3   2 -15  163.84    7.44
  -3   2  15  167.03    7.77
  -3  -2  15  170.26    7.48
  -3  -2  16    1.40    1.12
  -3   2  16    0.22    0.72
  -3   2  17    8.80    1.67
  -3  -2  17   13.28    2.23
  -3   2  18   42.55    4.17
  -3  -2  18   40.39    3.89
  -3   2  19 1034.28   25.55
  -3  -2  19 1019.70   24.33
  -3  -2  20  252.20   10.65
  -3   2  20  245.25   11.09
  -3   2  21 1073.79   27.05
  -3  -2  21 1057.61   26.19
  -3   2  22   21.06    3.44
  -3  -2  22   17.66    3.04
  -3  -2  23  246.25   11.28
  -3   2  23  246.25   11.69
  -3   2  24    9.86    2.46
  -3  -2  24    2.74    1.29
  -3   2  25   66.36    6.14
  -3  -2  25   69.97    6.15
  -3  -2  26    0.16    1.22
  -3   2  26   -1.76    1.19
  -3   2  27    2.19    1.07
  -3  -2  27    1.46    1.10
  -3   2  28   34.48    4.57
  -3  -2  28   36.37    4.94
  -3   2  29   34.02    4.53
  -3  -2  29   42.49    5.25
  -3   2  30   66.34    6.44
  -3  -2  30   68.41    6.78
  -3   2  31   64.18    6.54
  -3  -2  31   69.70    7.12
  -3   2  32   12.92    3.33
  -3  -2  32    9.44    3.06
  -3  -2  33  377.27   16.96
  -3   2  33  387.80   16.67
  -3  -2  34   39.38    5.53
  -3   2  34   46.20    5.71
  -3  -2  35  130.74    9.94
  -3   2  35  160.37   10.50
  -3   2  36   25.97    4.49
  -3  -2  36   21.77    4.30
  -3  -2  37   31.65    5.18
  -3   2  37   41.83    5.61
  -3   2  38    7.37    2.60
  -3  -2  38    6.60    2.06
  -3  -2  39    6.95    2.99
  -3   2  39    1.54    1.33
  -3   3   0    0.31    0.26
   3  -3   0    0.58    0.35
  -3  -3   0   -0.53    0.66
   3   3   0    0.31    0.44
   3   3   1  114.19    5.03
  -3  -3  -1  110.67    4.77
   3  -3  -1  114.83    3.65
  -3   3  -1  121.33    3.47
  -3  -3   1  116.09    4.86
   3   3  -1  107.72    4.96
  -3   3   1  115.63    3.55
  -3  -3  -2   92.38    4.29
  -3  -3   2   94.56    4.40
  -3   3   2   93.82    3.23
   3  -3  -2   97.55    3.45
   3   3  -2   91.47    4.56
  -3   3  -2   99.76    3.09
  -3  -3  -3   16.86    1.82
  -3   3  -3   18.15    1.24
  -3  -3   3   18.98    1.95
   3  -3  -3   17.47    1.47
  -3   3   3   19.37    1.41
   3   3  -3   17.39    1.97
   3  -3  -4  245.18    6.52
  -3  -3   4  235.66    7.53
   3   3  -4  234.18    8.14
  -3  -3  -4  235.60    7.57
  -3   3   4  236.92    6.21
  -3   3  -4  246.22    5.78
   3   3  -5    3.54    0.91
   3  -3  -5    3.87    0.86
  -3  -3   5    3.74    1.00
  -3   3   5    5.72    0.96
  -3  -3  -5    5.52    1.19
   3  -3  -6    2.05    0.77
  -3  -3   6    1.17    0.67
  -3   3   6    2.29    0.71
  -3   3   7  570.17   12.63
   3  -3  -7  556.35   12.62
  -3  -3   7  578.95   13.71
   3  -3  -8    1.24    0.67
  -3  -3   8    1.37    0.73
  -3   3   8    0.35    0.48
  -3   3  -9    7.30    1.15
  -3   3   9    6.12    1.19
  -3  -3   9    5.34    1.16
   3  -3  -9    4.67    1.13
  -3   3  10  223.87    7.87
  -3  -3  10  242.74    8.33
   3  -3 -10  233.77    8.09
  -3   3 -10  238.24    7.33
  -3   3  11  127.56    6.00
  -3  -3  11  132.88    6.10
   3  -3 -11  132.40    6.22
  -3   3 -11  138.33    5.70
  -3   3 -12   89.28    4.76
  -3   3  12   96.88    5.30
  -3  -3  12  100.56    5.30
   3  -3 -12   99.56    5.56
  -3   3 -13  109.12    5.59
  -3   3  13  111.48    5.92
  -3  -3  13  113.59    5.81
   3  -3 -13  108.48    6.17
  -3   3 -14   39.69    3.46
  -3  -3  14   43.69    3.63
  -3   3  14   38.61    3.59
  -3   3 -15   35.49    3.49
  -3   3  15   34.96    3.46
  -3  -3  15   34.92    3.37
  -3   3 -16   57.58    4.66
  -3  -3  16   59.91    4.53
  -3   3  16   61.73    4.82
  -3   3  17    0.39    0.74
  -3  -3  17    1.75    1.20
  -3   3  18   84.88    6.09
  -3  -3  18   91.85    5.82
  -3   3  19   93.20    6.51
  -3  -3  19   83.80    5.66
  -3   3  20    2.66    1.41
  -3  -3  20    0.14    1.04
  -3   3  21  130.94    7.96
  -3  -3  21  110.64    6.96
  -3   3  22   21.48    3.37
  -3  -3  22   21.06    3.06
  -3   3  23    0.36    1.12
  -3  -3  23    2.71    1.11
  -3   3  24    3.62    1.65
  -3  -3  24    2.62    1.45
  -3   3  25   -2.95    1.73
  -3  -3  25   -1.35    1.24
  -3   3  26    7.63    2.12
  -3  -3  26    6.94    2.17
  -3   3  27   -0.29    1.01
  -3  -3  27   -1.52    1.90
  -3  -3  28   53.86    5.69
  -3   3  28   54.86    5.65
  -3   3  29    2.66    2.01
  -3  -3  29   -0.09    1.34
  -3   3  30    1.33    1.74
  -3  -3  30    2.21    1.37
  -3  -3  31    2.79    1.41
  -3   3  31    2.30    1.48
  -3  -3  32    5.64    2.34
  -3   3  32    5.94    2.43
  -3   3  33  138.14    9.53
  -3  -3  33  119.40    9.48
  -3   3  34    4.61    2.55
  -3  -3  34    4.68    2.47
  -3  -3  35   -0.76    1.15
  -3   3  35    2.11    1.99
  -3   3  36   18.86    3.74
  -3  -3  36   12.67    3.15
  -3  -3  37    5.37    2.25
  -3   3  37    9.37    2.69
  -3   3  38    3.22    2.60
  -3  -3  38   -0.99    1.44
  -3  -3  39    5.60    2.38
  -3   3  39    9.07    3.09
  -3  -4   0    0.34    0.57
   3  -4   0    0.45    0.25
  -3   4   0    0.35    0.19
  -3  -4   1    6.45    1.22
  -3   4  -1    6.41    0.64
   3  -4  -1    7.80    0.79
  -3   4   1    7.83    0.76
  -3  -4  -1    5.18    1.14
  -3  -4  -2  155.34    5.98
  -3   4  -2  149.69    3.68
  -3   4   2  154.47    4.16
  -3  -4   2  146.58    5.78
   3  -4  -2  159.24    4.35
  -3   4  -3   41.97    1.70
   3  -4  -3   41.73    2.13
  -3   4   3   43.00    2.11
  -3  -4   3   39.61    2.90
  -3  -4  -3   37.11    2.83
   3  -4  -4   61.07    2.72
  -3   4   4   60.74    2.73
  -3  -4   4   53.06    3.43
  -3   4  -4   54.48    2.12
  -3  -4  -4   55.65    3.52
   3  -4  -5  248.10    6.59
  -3  -4  -5  234.10    7.88
  -3  -4   5  237.99    7.97
  -3   4   5  259.17    6.83
  -3  -4   6  512.71   13.06
  -3   4   6  505.25   11.67
  -3   4  -6  561.01   10.59
   3  -4  -6  509.22   11.42
   3  -4  -7    5.72    1.01
  -3   4   7    4.29    0.97
  -3   4  -7    5.06    0.82
  -3  -4   7    8.04    1.44
  -3   4   8   21.66    2.12
  -3   4  -8   25.85    1.99
   3  -4  -8   22.78    2.09
  -3  -4   8   20.23    2.28
  -3   4  -9    2.96    0.79
  -3   4   9    1.60    0.63
  -3  -4   9    1.24    0.68
   3  -4  -9    1.33    0.63
  -3   4  10   31.24    2.84
  -3   4 -10   33.25    2.58
   3  -4 -10   29.25    2.71
  -3  -4  10   29.56    2.81
  -3   4 -11   14.22    1.81
   3  -4 -11   15.17    2.03
  -3  -4  11   19.50    2.35
  -3   4  11   10.88    1.77
  -3   4  12    1.62    0.94
  -3   4 -12    2.67    0.84
   3  -4 -12    3.56    1.05
  -3  -4  12    2.44    0.97
  -3   4 -13   20.96    2.48
  -3   4  13   21.73    2.70
   3  -4 -13   22.20    2.86
  -3  -4  13   22.54    2.64
  -3   4  14   46.63    4.10
  -3   4 -14   45.45    3.81
  -3  -4  14   53.11    4.07
  -3   4  15   20.00    2.61
  -3   4 -15   21.58    2.71
  -3  -4  15   19.61    2.63
  -3   4  16   64.19    5.06
  -3   4 -16   68.77    5.11
  -3  -4  16   69.59    4.91
  -3  -4  17   67.75    4.91
  -3   4  17   60.97    5.07
  -3   4  18  161.83    8.53
  -3  -4  18  158.19    7.80
  -3   4  19  184.78    9.26
  -3  -4  19  179.43    8.61
  -3   4  20  512.73   16.56
  -3  -4  20  489.01   15.48
  -3  -4  21   55.50    4.91
  -3   4  21   67.59    5.56
  -3   4  22    7.16    2.23
  -3  -4  22    7.50    2.07
  -3  -4  23   35.69    4.19
  -3   4  23   29.98    3.95
  -3   4  24   99.63    7.18
  -3  -4  24   83.22    6.41
  -3   4  25    2.03    1.49
  -3  -4  25    2.09    1.79
  -3  -4  26   88.21    7.06
  -3   4  26  116.85    8.13
  -3   4  27   -0.76    0.93
  -3  -4  27   -0.41    1.35
  -3  -4  28   80.56    7.07
  -3   4  28   92.57    7.31
  -3  -4  29   67.66    6.64
  -3   4  29   81.10    6.83
  -3   4  30    2.45    1.63
  -3  -4  30    1.65    1.54
  -3  -4  31   88.32    7.89
  -3   4  31   93.82    7.65
  -3  -4  32  128.07    9.79
  -3   4  32  161.12   10.16
  -3  -4  33   58.32    6.69
  -3   4  33   61.67    6.41
  -3  -4  34  108.75    9.17
  -3   4  34  109.84    8.54
  -3   4  35   19.96    3.86
  -3  -4  35   11.66    3.08
  -3  -4  36   16.32    3.63
  -3   4  36    9.44    2.51
  -3  -4  37   15.35    3.56
  -3  -4  38   41.48    5.94
  -3   5   0    0.50    0.22
  -3  -5   0    0.31    0.46
  -3   5   1   42.22    1.74
   3  -5  -1   39.96    1.64
  -3  -5   1   33.86    2.77
  -3  -5  -1   41.18    3.09
  -3  -5   2   11.90    1.62
  -3  -5  -2   12.03    1.72
   3  -5  -2   11.96    0.98
  -3   5   2   11.67    1.02
  -3   5   3    1.46    0.42
   3  -5  -3    1.03    0.41
  -3  -5   3    2.02    0.84
  -3  -5  -3    0.82    0.76
  -3   5  -4    1.64    0.36
   3  -5  -4    0.69    0.34
  -3   5   4   -0.31    0.49
  -3  -5   4    1.19    0.69
  -3   5  -4    0.95    0.26
  -3  -5  -4   -0.55    0.58
  -3   5  -5   19.58    1.31
  -3  -5   5   23.37    2.36
  -3   5   5   19.35    1.73
   3  -5  -5   23.79    1.71
  -3  -5  -5   23.86    2.40
  -3   5  -6    3.76    0.66
  -3   5   6    4.32    0.93
  -3  -5   6    4.79    1.15
   3  -5  -6    4.03    0.73
  -3   5  -7   17.69    1.51
  -3  -5   7   13.97    1.84
   3  -5  -7   14.64    1.60
  -3   5   7   14.35    1.71
  -3   5  -8   70.37    3.52
   3  -5  -8   82.32    4.07
  -3   5   8   72.13    4.15
  -3  -5   8   76.80    4.42
  -3   5  -9   65.47    3.60
  -3   5   9   57.18    3.82
   3  -5  -9   69.75    3.96
  -3  -5   9   65.13    4.21
  -3   5  10   46.58    3.60
  -3   5 -10   51.48    3.36
   3  -5 -10   51.10    3.59
  -3  -5  10   52.16    3.81
  -3   5 -11   64.39    3.96
  -3   5  11   59.71    4.26
   3  -5 -11   66.96    4.38
  -3  -5  11   61.37    4.25
  -3   5  12   57.02    4.38
  -3   5 -12   60.38    4.01
   3  -5 -12   56.87    4.32
  -3  -5  12   56.80    4.11
  -3   5  13   28.70    3.13
  -3  -5  13   24.80    2.81
   3  -5 -13   23.05    2.82
  -3   5 -13   24.32    2.62
  -3   5 -14  111.30    5.97
  -3   5  14  110.80    6.32
  -3  -5  14  105.35    5.82
  -3   5  15   66.55    5.04
  -3  -5  15   65.66    4.66
  -3   5 -15   70.55    4.89
  -3   5  16    1.83    1.25
  -3   5 -16    1.36    0.94
  -3  -5  16    1.28    1.15
  -3   5 -17   42.72    4.03
  -3  -5  17   43.08    4.00
  -3   5  17   44.47    4.16
  -3   5  18  154.56    8.03
  -3  -5  18  139.30    7.42
  -3   5  19    0.06    1.02
  -3  -5  19    2.35    1.32
  -3   5  20   29.51    3.62
  -3  -5  20   32.22    3.65
  -3   5  21   32.86    4.02
  -3  -5  21   33.98    3.88
  -3   5  22   16.24    2.95
  -3  -5  22   13.32    2.59
  -3  -5  23   86.33    6.37
  -3   5  23   72.30    6.02
  -3  -5  24   48.83    4.97
  -3   5  24   44.79    4.84
  -3  -5  25   34.14    4.24
  -3   5  25   30.65    4.01
  -3  -5  26   55.02    5.57
  -3   5  26   53.89    5.41
  -3   5  27   17.38    3.18
  -3  -5  27   13.82    3.04
  -3  -5  28   62.29    6.18
  -3   5  28   70.83    6.35
  -3  -5  29   56.49    6.01
  -3   5  29   63.24    6.08
  -3   5  30    1.03    1.30
  -3  -5  30   -0.10    1.33
  -3   5  31   24.88    4.27
  -3  -5  31   21.65    4.13
  -3  -5  32  102.84    8.77
  -3   5  32  135.22    9.23
  -3  -5  33   -0.45    1.54
  -3   5  33    3.11    2.04
  -3  -5  34    1.25    1.78
  -3   5  34    6.38    2.46
  -3  -5  35    3.64    2.56
  -3  -5  36   10.29    2.82
  -3  -5  37    4.58    1.95
  -3  -5  38    6.01    2.37
  -3  -6   0    0.98    0.85
  -3  -6  -1   57.31    3.78
  -3  -6   1   56.28    3.72
  -3   6   2  131.81    3.67
   3  -6  -2  136.72    3.52
  -3  -6  -2  136.22    6.04
  -3  -6   2  133.78    5.90
  -3   6   3   17.78    1.34
   3  -6  -3   19.45    1.28
  -3  -6   3   20.61    2.32
  -3  -6  -3   17.93    2.13
  -3  -6  -4   18.96    2.22
  -3  -6   4   18.85    2.18
  -3   6   4   17.28    1.50
   3  -6  -4   17.61    1.30
  -3   6   5  121.30    4.64
  -3  -6   5  137.52    6.07
  -3   6  -5  129.08    3.36
  -3  -6  -5  141.32    6.17
   3  -6  -5  137.40    4.37
  -3   6   6   19.68    1.88
  -3  -6   6   24.87    2.53
  -3   6  -6   26.06    1.52
  -3  -6  -6   25.03    2.53
   3  -6  -6   24.77    1.90
  -3   6   7  117.42    5.08
  -3  -6   7  130.18    6.03
  -3   6  -7  129.17    4.16
   3  -6  -7  132.77    5.02
  -3  -6   8   59.86    4.01
  -3   6  -8   64.41    3.04
   3  -6  -8   62.36    3.60
  -3   6   8   56.75    3.60
  -3   6   9   82.09    4.55
  -3   6  -9   85.39    3.86
   3  -6  -9   93.55    4.75
  -3  -6   9   90.60    5.10
  -3   6  10   19.09    2.25
  -3   6 -10   18.88    1.88
   3  -6 -10   24.13    2.61
  -3  -6  10   22.49    2.60
  -3  -6  11    1.60    0.77
  -3   6  11    3.17    1.22
  -3   6 -11    2.63    0.72
   3  -6 -11    3.01    1.12
  -3   6 -12   76.45    4.35
   3  -6 -12   83.92    5.38
  -3   6  12   76.73    4.90
  -3  -6  12   81.58    5.08
  -3   6  13    6.63    1.57
  -3   6 -13    6.66    1.43
   3  -6 -13    5.77    1.58
  -3  -6  13    3.57    1.19
  -3   6  14   37.88    3.57
  -3   6 -14   41.43    3.43
  -3  -6  14   41.46    3.68
  -3   6 -15   44.93    3.79
  -3  -6  15   43.29    3.87
  -3   6  15   44.49    4.11
  -3   6  16  111.51    6.55
  -3   6 -16  109.52    6.21
  -3  -6  16  103.72    6.12
  -3   6  17    4.14    1.50
  -3   6 -17    2.51    1.00
  -3  -6  17    2.47    1.29
  -3  -6  18  260.04   10.46
  -3   6  18  256.37   10.67
  -3  -6  19  300.61   11.53
  -3   6  19  297.73   11.75
  -3   6  20    9.34    2.22
  -3  -6  20    7.28    1.78
  -3  -6  21   27.20    3.46
  -3   6  21   23.98    3.23
  -3  -6  22  170.26    8.95
  -3   6  22  182.54    9.34
  -3  -6  23  375.60   14.21
  -3   6  23  396.81   14.56
  -3  -6  24   58.08    5.39
  -3   6  24   74.11    6.04
  -3  -6  25   19.66    3.34
  -3   6  25   17.60    3.20
  -3   6  26   18.36    3.42
  -3  -6  26   12.24    2.92
  -3  -6  27  167.07   10.00
  -3   6  27  175.98    9.98
  -3  -6  28   43.46    5.18
  -3   6  28   46.19    5.17
  -3  -6  29    4.59    1.78
  -3   6  29   15.57    3.22
  -3  -6  30   44.44    5.48
  -3   6  30   57.37    5.86
  -3  -6  31   58.57    6.36
  -3  -6  32  196.47   12.20
  -3  -6  33   77.98    7.75
  -3  -6  34    8.83    2.97
  -3  -6  35   11.45    3.43
  -3  -6  36   76.65    8.10
  -3  -6  37   83.38    8.53
  -3  -6  38    5.31    2.16
  -3  -7   0    0.24    0.60
  -3  -7  -1  108.54    5.47
  -3  -7   1  104.81    5.34
  -3  -7   2   11.76    1.86
  -3  -7  -2   10.42    1.72
   3  -7  -2   10.62    0.76
   3  -7  -3    0.54    0.30
  -3  -7  -3    0.78    0.59
  -3  -7   3    0.80    0.65
  -3  -7  -4   35.79    3.16
  -3  -7   4   39.49    3.21
   3  -7  -4   40.89    2.00
  -3  -7  -5   17.53    2.28
  -3  -7   5   19.34    2.25
   3  -7  -5   18.51    1.50
  -3   7   5   18.80    1.51
  -3  -7   6    1.36    0.80
  -3  -7  -6    1.00    0.56
   3  -7  -6    0.64    0.48
  -3   7  -6    1.28    0.29
  -3   7   6    2.05    0.76
  -3  -7   7  229.21    8.44
   3  -7  -7  245.07    7.31
  -3   7  -7  220.32    5.29
  -3   7   7  228.23    6.97
  -3  -7   8   83.26    4.94
  -3   7  -8   78.52    3.06
   3  -7  -8   80.52    4.27
  -3   7   8   79.18    4.03
  -3  -7   9    0.70    0.75
  -3   7  -9    3.30    0.75
  -3   7   9    0.72    0.52
   3  -7  -9    1.78    1.16
  -3   7  10   15.30    1.95
  -3  -7  10   18.48    2.36
  -3   7 -10   15.27    1.61
   3  -7 -10   17.31    2.22
  -3   7 -11   79.85    4.00
   3  -7 -11   76.37    5.05
  -3  -7  11   81.51    5.05
  -3   7  11   72.97    4.44
  -3   7 -12   90.08    4.54
  -3   7  12   89.57    5.13
   3  -7 -12  100.85    6.12
  -3  -7  12   97.60    5.57
  -3   7 -13    5.00    1.23
   3  -7 -13    3.95    1.36
  -3   7  13    4.14    1.45
  -3  -7  13    4.29    1.26
  -3   7 -14   67.05    4.32
  -3  -7  14   73.98    5.03
  -3   7  14   72.11    4.79
  -3   7 -15   70.31    4.64
  -3  -7  15   83.92    5.47
  -3   7  15   83.34    5.33
  -3   7  16    0.79    1.11
  -3   7 -16    0.96    0.64
  -3  -7  16    0.92    1.08
  -3   7  17   21.77    2.87
  -3   7 -17   24.28    2.98
  -3  -7  17   22.27    2.97
  -3   7  18   23.80    3.14
  -3  -7  18   24.05    3.16
  -3  -7  19   32.79    3.73
  -3   7  19   38.50    4.05
  -3  -7  20   54.76    4.86
  -3   7  20   56.43    4.93
  -3  -7  21   14.58    2.56
  -3   7  21   19.10    2.93
  -3   7  22   14.81    2.67
  -3  -7  22   15.23    2.67
  -3  -7  23    0.38    1.11
  -3   7  23    0.85    1.15
  -3   7  24    0.62    0.84
  -3  -7  24    2.96    1.37
  -3  -7  25   47.41    5.00
  -3   7  25   52.14    5.25
  -3   7  26   43.66    4.88
  -3  -7  26   41.53    4.80
  -3  -7  27   18.40    3.25
  -3  -7  28    5.99    2.00
  -3  -7  29    3.91    1.77
  -3  -7  30    5.79    2.45
  -3  -7  31   61.57    6.57
  -3  -7  32   12.34    3.20
  -3  -7  33    3.92    1.78
  -3  -7  34   -3.02    2.24
  -3  -7  35   -0.06    1.91
  -3  -7  36   -0.71    2.09
  -3  -7  37   11.22    3.04
  -3  -7  38    1.66    1.89
  -3  -8   0    0.76    0.86
  -3  -8  -1  174.38    7.27
  -3  -8   1  171.45    7.17
  -3  -8  -2   82.22    4.88
  -3  -8   2   76.89    4.67
   3  -8  -2   69.26    2.06
  -3  -8   3   78.85    4.77
   3  -8  -3   82.48    2.68
  -3  -8  -3   77.24    4.77
  -3  -8  -4    0.82    0.66
   3  -8  -4    0.84    0.23
  -3  -8   4    0.88    0.60
   3  -8  -5   14.24    1.38
  -3  -8   5   11.63    1.78
  -3  -8  -5   14.92    2.17
  -3  -8   6   75.45    4.69
   3  -8  -6   83.67    3.82
  -3  -8  -6   77.75    4.89
  -3  -8   7   12.84    1.96
  -3  -8  -7   12.29    2.04
   3  -8  -7   12.43    1.68
  -3   8  -7   11.71    0.89
   3  -8  -8    3.33    1.20
  -3  -8   8    3.87    1.21
  -3   8  -8    2.42    0.52
  -3  -8   9   49.02    3.87
   3  -8  -9   53.91    3.94
  -3   8  -9   49.80    2.47
  -3   8 -10  169.10    5.38
   3  -8 -10  169.31    7.53
  -3  -8  10  178.33    7.67
  -3  -8  11    5.47    1.51
   3  -8 -11    5.03    1.34
  -3   8 -11    4.26    0.91
  -3  -8  12   21.40    2.63
   3  -8 -12   17.79    2.65
  -3   8 -12   22.55    2.10
   3  -8 -13  184.31    9.14
  -3   8 -13  218.90    7.53
  -3  -8  13  221.99    8.99
  -3   8 -14   21.97    2.37
  -3  -8  14   21.31    2.70
  -3   8 -15   15.70    2.17
  -3  -8  15   16.60    2.66
  -3   8  15   11.86    2.03
  -3   8  16    4.04    1.22
  -3   8 -16    6.83    1.59
  -3  -8  16    7.13    1.72
  -3   8  17  314.78   11.49
  -3   8 -17  299.40   10.88
  -3  -8  17  329.60   12.04
  -3  -8  18   86.67    5.96
  -3  -8  19   69.59    5.41
  -3  -8  20   98.86    6.62
  -3  -8  21   25.79    3.33
  -3  -8  22   46.32    4.69
  -3  -8  23    7.15    1.99
  -3  -8  24  138.67    8.52
  -3  -8  25    1.93    1.41
  -3  -8  26    2.55    1.62
  -3  -8  27   58.04    5.88
  -3  -8  28   11.71    2.77
  -3  -8  29   22.21    3.80
  -3  -8  30   10.53    3.04
  -3  -8  31  150.14   10.39
  -3  -8  32  118.76    9.42
  -3  -8  33  136.68   10.37
  -3  -8  34   24.69    4.56
  -3  -8  35   29.72    4.98
  -3  -8  36   51.91    6.61
  -3  -8  37   37.81    5.79
  -3  -9   0   -0.04    0.71
  -3  -9  -1   58.33    4.22
  -3  -9   1   61.01    4.27
  -3  -9  -2  380.41   11.83
   3  -9  -2  363.53    6.80
  -3  -9   2  383.32   11.74
   3  -9  -3   92.61    2.96
  -3  -9   3   91.51    5.32
  -3  -9  -3   89.22    5.29
   3  -9  -4  229.34    5.99
  -3  -9   4  205.12    8.24
  -3  -9  -4  213.34    8.60
  -3  -9  -5   41.47    3.62
   3  -9  -5   48.93    2.82
  -3  -9   5   41.01    3.52
   3  -9  -6   26.36    2.26
  -3  -9   6   22.45    2.63
  -3  -9  -6   28.13    2.96
  -3   9  -7   37.78    1.62
  -3  -9   7   41.07    3.53
   3  -9  -7   42.76    3.11
  -3  -9  -7   38.59    3.47
  -3   9  -8    3.17    0.52
  -3  -9   8    2.27    1.00
   3  -9  -8    2.73    0.86
  -3  -9   9  129.31    6.70
   3  -9  -9  133.92    6.51
  -3   9  -9  138.11    4.27
  -3  -9  10   24.63    2.88
   3  -9 -10   21.81    2.86
  -3   9 -10   27.76    1.92
   3  -9 -11   26.67    3.20
  -3   9 -11   32.45    2.25
  -3  -9  11   32.38    3.29
   3  -9 -12   56.42    4.88
  -3   9 -12   73.07    3.71
  -3  -9  12   67.18    4.80
   3  -9 -13   23.79    3.29
  -3   9 -13   26.67    2.39
  -3  -9  13   29.35    3.16
  -3   9 -14    0.19    0.44
  -3  -9  14    1.31    0.79
  -3   9 -15   90.36    4.98
  -3  -9  15   94.79    6.15
  -3   9 -16   40.07    3.43
  -3  -9  16   41.74    4.07
  -3   9 -17   85.29    5.34
  -3  -9  17   81.86    5.83
  -3  -9  18   65.92    5.22
  -3   9 -18   56.10    4.52
  -3  -9  19    1.54    1.11
  -3  -9  20   39.39    4.28
  -3  -9  21    8.68    1.88
  -3  -9  22    5.11    1.91
  -3  -9  23   27.33    3.73
  -3  -9  24   59.68    5.57
  -3  -9  25    3.10    1.59
  -3  -9  26   -0.13    1.25
  -3  -9  27    2.76    1.63
  -3  -9  28   21.56    3.68
  -3  -9  29   12.94    3.11
  -3  -9  30   17.20    3.40
  -3  -9  31   20.39    3.75
  -3  -9  32   23.02    4.23
  -3  -9  33    9.73    2.98
  -3  -9  34    3.39    2.07
  -3  -9  35    5.41    2.00
  -3  -9  36   -0.83    2.25
  -3  -9  37   14.36    3.67
  -3 -10   0   -0.29    0.77
  -3 -10   1    1.77    0.94
  -3 -10  -1    2.22    0.92
  -3 -10   2    0.16    0.61
   3 -10  -2    0.64    0.27
   3 -10  -2    0.98    0.31
  -3 -10  -2    1.13    0.77
   3 -10  -3   75.21    2.88
  -3 -10  -3   70.82    4.79
  -3 -10   3   65.69    4.61
   3 -10  -4  112.66    4.13
  -3 -10   4   92.57    5.54
  -3 -10  -4  106.28    6.02
   3 -10  -5   20.39    1.93
  -3 -10   5   14.75    2.31
  -3 -10  -5   16.58    2.35
   3 -10  -6  938.01   19.43
  -3 -10   6  885.61   21.21
  -3 -10  -6  952.82   22.10
  -3  10  -7  160.83    3.94
  -3 -10   7  165.72    7.54
   3 -10  -7  160.16    6.77
  -3 -10  -7  180.08    8.04
  -3 -10   8  843.62   20.30
   3 -10  -8  772.13   19.33
  -3 -10  -8  858.25   20.75
  -3  10  -8  871.37   15.00
  -3  10  -9   10.36    1.07
  -3 -10   9    6.91    1.70
   3 -10  -9    6.40    1.28
  -3 -10  10   25.02    2.96
  -3  10 -10   25.71    1.82
   3 -10 -10   19.78    2.63
   3 -10 -11  315.13   12.30
  -3 -10  11  326.08   11.71
  -3  10 -11  373.52    8.96
  -3 -10  12    4.33    1.64
  -3  10 -12    4.41    0.94
   3 -10 -12    2.60    1.18
   3 -10  12    4.32    1.16
  -3 -10  13    1.45    1.03
   3 -10 -13    1.08    1.01
  -3  10 -13    0.27    0.54
   3 -10  13   -0.05    0.70
  -3  10 -14   30.01    2.60
   3 -10  14   22.89    2.47
  -3 -10  14   25.46    3.15
  -3 -10  15   49.60    4.36
  -3  10 -15   49.88    3.61
   3 -10  15   40.22    3.49
   3 -10  16    3.13    1.06
  -3 -10  16    3.42    1.41
  -3  10 -16    2.13    0.95
  -3 -10  17   42.65    4.22
  -3  10 -17   48.82    3.95
   3 -10  17   40.24    3.71
  -3 -10  18  265.69   10.94
  -3  10 -18  233.71    9.60
   3 -10  18  246.73    9.85
  -3 -10  19   74.39    5.71
   3 -10  19   69.02    5.15
  -3 -10  20  370.59   13.76
  -3 -10  21    6.65    2.08
  -3 -10  22  137.89    8.27
  -3 -10  23    2.53    1.59
  -3 -10  24   -0.11    1.01
  -3 -10  25  140.43    8.88
  -3 -10  26    2.58    1.30
  -3 -10  27    7.11    2.28
  -3 -10  28   24.36    4.00
  -3 -10  29   12.39    2.89
  -3 -10  30    8.50    2.36
  -3 -10  31   73.79    7.29
  -3 -10  32  165.18   11.26
  -3 -10  33   79.60    7.91
  -3 -10  34  105.72    9.38
  -3 -10  35   14.23    3.83
  -3 -10  36    0.24    2.17
  -3 -11   0   -0.31    0.92
  -3 -11   1   -0.04    0.73
  -3 -11  -1    0.01    0.74
  -3 -11   2   -0.12    1.08
  -3 -11  -2    0.11    0.62
   3 -11  -2    0.94    0.40
   3 -11  -2    1.08    0.29
   3 -11  -3   52.00    2.70
  -3 -11  -3   43.76    3.93
  -3 -11   3   47.07    3.91
   3 -11  -4   88.98    4.11
  -3 -11   4   87.72    5.44
  -3 -11  -4   85.85    5.50
  -3 -11  -5  132.67    6.91
   3 -11  -5  119.33    5.31
  -3 -11   5  131.93    6.80
   3 -11  -6   12.98    1.77
  -3 -11  -6   21.42    2.79
  -3 -11   6   15.29    2.38
   3 -11  -7  208.46    8.39
  -3 -11   7  241.32    9.46
  -3 -11  -7  254.19    9.91
  -3  11  -7  239.13    5.17
   3 -11  -8  173.81    7.94
  -3  11  -8  191.20    4.90
  -3 -11   8  190.60    8.43
  -3 -11  -8  177.50    8.36
   3 -11   8  211.03    5.51
  -3 -11  -9    1.12    0.99
  -3 -11   9    3.33    1.40
   3 -11  -9    1.97    1.12
   3 -11   9    1.97    0.66
  -3  11  -9    2.55    0.64
  -3 -11  10   44.76    4.13
   3 -11 -10   41.95    4.12
  -3  11 -10   48.07    2.53
   3 -11  10   40.17    2.59
  -3 -11  11    1.50    0.89
   3 -11 -11    1.40    0.91
  -3  11 -11    3.52    0.74
   3 -11  11    4.18    0.93
  -3 -11  12   10.55    2.01
  -3  11 -12   11.02    1.45
   3 -11  12    9.59    1.45
   3 -11 -12   10.77    2.27
   3 -11  13    4.96    1.05
  -3 -11  13    5.43    1.71
   3 -11 -13    4.99    1.93
  -3  11 -13    4.75    1.12
  -3 -11  14   77.57    5.50
  -3  11 -14   77.83    4.26
   3 -11  14   63.48    4.25
   3 -11  15    1.35    0.87
  -3  11 -15    1.67    0.90
  -3 -11  15    1.33    1.01
   3 -11  16   21.21    2.62
  -3  11 -16   25.31    2.67
  -3 -11  16   23.84    3.15
  -3 -11  17   33.25    3.81
  -3  11 -17   25.17    2.83
   3 -11  17   27.40    3.08
  -3 -11  18   57.78    5.13
   3 -11  18   60.07    4.74
  -3  11 -18   56.62    4.40
   3 -11  19  148.44    7.73
  -3 -11  19  151.82    8.48
   3 -11  20    1.61    1.14
  -3 -11  20    1.59    1.59
  -3 -11  21  132.97    8.11
   3 -11  21  120.66    7.24
  -3 -11  22  127.32    8.06
   3 -11  22  123.93    7.46
  -3 -11  23   25.56    3.85
   3 -11  23   32.79    3.88
  -3 -11  24   73.53    6.27
  -3 -11  25    0.71    1.29
  -3 -11  26   16.65    3.28
  -3 -11  27    2.61    1.40
  -3 -11  28   25.98    4.19
  -3 -11  29    7.82    2.44
  -3 -11  30   -0.07    1.12
  -3 -11  31    1.22    1.60
  -3 -11  32   20.85    4.03
  -3 -11  33   47.40    6.05
  -3 -11  34    1.39    1.28
  -3 -11  35   15.59    3.80
  -3 -11  36   23.95    4.78
  -3 -12   0   -0.34    0.98
   3 -12  -1  169.46    4.86
  -3 -12  -1  204.87    8.83
   3 -12  -1  182.10    4.19
  -3 -12   1  187.44    8.43
   3 -12  -2    8.67    1.08
   3 -12  -2    8.61    0.84
  -3 -12  -2    5.47    1.27
  -3 -12   2    6.34    1.37
  -3 -12  -3   16.15    2.40
   3 -12  -3   11.98    1.39
  -3 -12   3   15.46    2.34
   3 -12  -3   17.55    1.33
  -3 -12   4   80.09    5.42
  -3 -12  -4   79.46    5.40
   3 -12  -4   69.69    3.91
   3 -12  -5 1312.35   26.80
  -3 -12   5 1431.37   29.95
  -3 -12  -5 1448.80   30.37
   3 -12   6    1.95    0.52
   3 -12  -6    7.37    1.75
  -3 -12   6    3.48    1.73
  -3 -12  -6    4.03    1.79
  -3 -12   7 2587.90   46.56
   3 -12  -7 2599.05   45.67
  -3 -12  -7 2554.14   46.91
  -3  12  -7 2523.44   38.45
  -3 -12   8    4.17    1.69
  -3  12  -8    2.18    0.50
   3 -12  -8    7.00    2.21
  -3 -12  -8    4.84    1.87
   3 -12   8    9.24    1.26
  -3  12  -9  727.85   13.29
  -3 -12  -9  678.51   18.55
  -3 -12   9  739.31   18.79
   3 -12  -9  759.30   19.46
  -3 -12  10  234.59    9.73
   3 -12 -10  252.59   10.60
   3 -12  10  198.45    6.85
  -3  12 -10  242.14    6.49
  -3 -12 -10  211.14    9.47
   3 -12  11    5.23    1.12
  -3 -12  11    5.21    1.70
   3 -12 -11    4.58    1.73
  -3  12 -11    4.40    0.90
   3 -12 -12   24.07    3.47
  -3 -12  12   20.07    2.81
   3 -12  12   21.39    2.25
  -3  12 -12   23.26    2.06
  -3  12 -13   95.87    4.52
  -3 -12  13   90.06    6.01
   3 -12  13   88.15    4.90
  -3  12 -14   65.62    3.87
  -3 -12  14   58.95    4.91
   3 -12  14   58.77    4.15
  -3  12 -15   32.84    2.87
  -3 -12  15   39.46    4.04
   3 -12  15   29.34    2.98
   3 -12  16    4.08    1.20
  -3  12 -16    2.34    0.75
  -3 -12  16    0.85    0.80
   3 -12  17    1.02    0.71
  -3  12 -17    1.97    1.09
  -3 -12  17    3.21    1.36
  -3  12 -18    9.01    1.89
   3 -12  18   10.86    2.21
  -3 -12  18    6.89    2.08
  -3 -12  19  846.38   23.28
   3 -12  19  871.98   21.76
   3 -12  20   11.84    2.88
  -3 -12  20    7.65    2.52
  -3 -12  21 1432.01   33.67
   3 -12  21 1517.52   32.77
   3 -12  22   26.49    3.64
  -3 -12  22   29.20    4.13
  -3 -12  23  289.31   12.90
   3 -12  23  301.99   12.26
  -3 -12  24   95.19    7.29
   3 -12  24   98.63    6.91
  -3 -12  25    1.01    1.00
   3 -12  25    2.13    1.42
  -3 -12  26   11.34    2.75
  -3 -12  27    4.11    2.13
  -3 -12  28   33.98    4.81
  -3 -12  29    3.77    1.82
  -3 -12  30    3.47    2.01
  -3 -12  31   41.45    5.56
  -3 -12  32   32.63    5.12
  -3 -12  33  168.97   11.67
  -3 -12  34    0.89    1.95
  -3 -12  35  272.81   15.74
   3 -13   0   -0.06    0.25
   3 -13   0   -0.05    0.14
  -3 -13   0   -0.04    1.20
   3 -13  -1    3.53    0.66
  -3 -13  -1    3.62    1.36
   3 -13  -1    4.34    0.60
  -3 -13   1   -0.84    1.16
  -3 -13   2    4.30    1.25
   3 -13  -2    4.26    0.74
   3 -13  -2    6.75    0.83
  -3 -13  -2    5.64    1.45
  -3 -13   3   19.04    2.64
   3 -13  -3   22.75    2.12
  -3 -13  -3   22.27    2.86
   3 -13  -3   24.94    1.68
   3 -13  -4   43.10    3.10
  -3 -13   4   45.91    4.15
  -3 -13  -4   36.58    3.85
   3 -13  -4   48.51    2.53
   3 -13  -5   25.00    2.52
  -3 -13  -5   21.96    3.01
  -3 -13   5   25.71    3.17
   3 -13   5   18.17    1.28
  -3 -13  -6  293.85   11.19
   3 -13  -6  284.36    9.85
  -3 -13   6  280.92   10.79
   3 -13   6  249.82    6.42
   3 -13   7  335.07    8.25
   3 -13  -7  363.14   11.88
  -3 -13  -7  337.71   12.47
  -3 -13   7  353.02   12.38
  -3 -13   8  169.76    8.19
  -3  13  -8  168.83    4.68
   3 -13   8  152.72    5.37
  -3 -13  -8  156.60    8.18
   3 -13  -8  180.31    8.28
   3 -13  -9  125.31    7.16
  -3  13  -9  116.20    4.01
  -3 -13   9  115.93    6.69
   3 -13   9  115.44    4.77
  -3 -13  -9  119.86    7.05
   3 -13  10   60.75    3.55
  -3  13 -10   65.77    3.12
   3 -13 -10   66.39    5.42
  -3 -13 -10   61.10    4.99
  -3 -13  10   66.37    5.17
   3 -13  11    1.74    0.82
  -3  13 -11    2.03    0.75
   3 -13 -11    2.68    1.51
  -3 -13  11    0.27    0.77
   3 -13  12   10.22    1.63
   3 -13 -12   10.52    2.26
  -3 -13  12    8.34    1.95
  -3  13 -12    7.98    1.20
  -3 -13  13    0.31    0.85
   3 -13  13    1.02    0.79
  -3  13 -13    0.01    0.42
  -3 -13  14    3.27    1.34
   3 -13  14    3.79    1.22
  -3  13 -14    4.58    1.39
   3 -13  15   17.81    2.53
  -3  13 -15   14.18    1.90
  -3 -13  15   12.55    2.34
   3 -13  16   -0.33    0.74
  -3  13 -16   -0.14    0.58
  -3 -13  16    0.66    1.07
  -3  13 -17   69.70    4.74
   3 -13  17   78.48    5.33
  -3 -13  17   81.45    6.18
   3 -13  18    0.92    0.84
  -3 -13  18    3.18    1.54
   3 -13  19   22.50    3.09
  -3 -13  19   20.30    3.36
  -3 -13  20  146.97    8.74
   3 -13  20  163.99    8.26
  -3 -13  21  116.29    7.77
   3 -13  21  117.62    7.10
   3 -13  22   23.35    3.26
  -3 -13  22   30.29    4.16
  -3 -13  23  121.67    8.30
   3 -13  23  128.38    7.76
   3 -13  24    1.45    1.08
  -3 -13  24    3.05    1.40
   3 -13  25   -0.25    1.02
  -3 -13  25   -0.56    0.93
  -3 -13  26    4.70    2.03
   3 -13  26    2.80    1.18
   3 -13  27    5.83    1.99
  -3 -13  27    4.83    1.98
  -3 -13  28    0.78    1.42
  -3 -13  29    9.50    2.53
  -3 -13  30   10.74    2.69
  -3 -13  31   22.85    4.12
  -3 -13  32   17.89    3.86
  -3 -13  33    8.90    3.03
  -3 -13  34   32.01    5.24
  -3 -13  35    6.78    2.25
   3 -14   0   -0.01    0.20
  -3 -14   0   -1.90    1.65
   3 -14   0    0.18    0.21
  -3 -14   1   15.02    2.38
   3 -14  -1   17.63    1.61
   3 -14  -1   17.20    1.28
  -3 -14  -1   17.15    2.38
   3 -14   1   13.79    0.99
   3 -14   1   18.84    1.24
   3 -14  -2  383.95    9.31
  -3 -14  -2  381.61   13.13
   3 -14   2  322.76    6.65
  -3 -14   2  365.34   12.81
   3 -14  -2  362.70    7.92
   3 -14  -3   74.75    3.92
  -3 -14  -3   72.35    5.35
   3 -14   3   62.78    2.19
   3 -14  -3   70.96    3.03
  -3 -14   3   65.88    5.08
   3 -14  -4  260.54    8.36
   3 -14  -4  241.74    6.62
   3 -14   4  233.12    5.26
  -3 -14  -4  220.22    9.90
  -3 -14   4  234.67   10.04
   3 -14  -5   57.89    4.12
   3 -14   5   58.64    2.43
  -3 -14   5   56.59    4.82
  -3 -14  -5   58.94    4.99
   3 -14  -6 2133.34   39.22
   3 -14   6 2107.68   33.88
  -3 -14   6 1994.81   40.76
  -3 -14  -6 1966.10   41.28
   3 -14  -7  337.66   11.60
   3 -14   7  321.82    8.15
  -3 -14   7  336.89   12.25
  -3 -14  -7  320.72   12.31
   3 -14  -8 1299.89   28.77
  -3 -14   8 1297.04   29.17
  -3 -14  -8 1255.32   29.29
   3 -14   8 1320.08   23.93
   3 -14   9  181.49    6.38
   3 -14  -9  177.53    8.76
  -3 -14   9  178.70    8.63
  -3 -14  -9  175.46    8.82
  -3  14  -9  173.54    5.29
  -3 -14  10  126.53    7.26
   3 -14 -10  128.02    7.62
  -3  14 -10  119.41    4.45
   3 -14  10  136.45    5.63
  -3 -14 -10  105.04    6.88
  -3 -14  11   45.07    4.34
   3 -14  11   50.05    3.48
   3 -14 -11   42.24    4.44
  -3  14 -11   45.90    2.85
  -3 -14 -11   41.18    4.22
   3 -14  12  118.92    5.63
  -3  14 -12  104.23    4.63
  -3 -14  12   91.70    6.37
   3 -14  13   32.02    2.99
  -3 -14  13   25.70    3.31
  -3  14 -13   27.03    2.44
  -3 -14  14    1.95    1.04
  -3  14 -14    2.00    0.85
   3 -14  14    3.13    1.19
   3 -14  15   68.47    4.69
  -3  14 -15   65.88    4.20
  -3 -14  15   69.39    5.59
  -3  14 -16  106.78    5.66
   3 -14  16  125.74    6.62
  -3 -14  16  125.18    7.62
   3 -14  17   37.83    3.79
  -3 -14  17   43.41    4.51
  -3 -14  18  109.13    7.36
   3 -14  18  133.75    7.22
   3 -14  19   21.86    3.29
  -3 -14  19   13.59    2.80
   3 -14  20 1244.72   28.22
  -3 -14  20 1197.73   29.80
   3 -14  21  144.31    7.96
  -3 -14  21  135.23    8.55
  -3 -14  22  416.22   15.94
   3 -14  22  434.66   14.75
  -3 -14  23  174.65   10.03
   3 -14  23  188.23    9.34
   3 -14  24    2.76    1.55
  -3 -14  24    1.18    1.15
   3 -14  25   11.47    2.39
  -3 -14  25   12.46    3.01
   3 -14  26    2.35    1.37
  -3 -14  26    3.02    1.87
  -3 -14  27   94.79    7.74
   3 -14  27  112.66    7.61
  -3 -14  28    3.09    1.88
   3 -14  28    4.41    1.79
  -3 -14  29   55.96    6.20
  -3 -14  30   -1.74    1.64
  -3 -14  31    3.24    1.98
  -3 -14  32   51.68    6.34
  -3 -14  33    4.68    2.38
  -3 -14  34  223.66   13.98
   3 -15   0   -0.04    0.25
   3 -15   0    0.44    0.49
   3 -15  -1   64.04    3.04
   3 -15  -1   60.03    2.68
  -3 -15  -1   59.99    5.12
  -3 -15   1   65.29    5.17
   3 -15   1   57.55    2.37
  -3 -15   2    5.56    1.58
   3 -15  -2    8.16    1.01
   3 -15  -2   10.42    1.37
  -3 -15  -2   10.13    2.08
   3 -15   2    8.00    0.80
   3 -15  -3   28.23    1.96
   3 -15   3   28.33    1.49
  -3 -15  -3   29.71    3.59
  -3 -15   3   22.68    3.06
   3 -15  -3   33.16    2.53
   3 -15  -4    0.73    0.54
  -3 -15  -4    0.40    1.24
   3 -15   4    0.77    0.29
   3 -15  -4    1.20    0.53
  -3 -15   4   -1.48    1.26
   3 -15  -5    3.69    1.01
   3 -15  -5    3.40    1.17
  -3 -15  -5    4.67    1.70
   3 -15   5    3.02    0.52
  -3 -15   5    2.13    1.19
   3 -15   6  286.08    6.91
  -3 -15   6  264.37   11.05
   3 -15  -6  278.17    9.79
  -3 -15  -6  281.74   11.56
   3 -15  -7  259.59   10.03
   3 -15   7  261.97    6.96
  -3 -15   7  239.36   10.38
  -3 -15  -7  247.70   10.88
  -3 -15  -8  147.51    8.14
   3 -15   8  154.13    5.36
  -3 -15   8  136.85    7.66
   3 -15  -8  143.99    7.50
   3 -15  -9   -0.56    1.26
   3 -15   9   -0.14    0.58
  -3  15  -9    0.61    0.44
  -3 -15   9    0.43    0.90
  -3 -15  -9   -1.78    1.45
   3 -15  10    4.72    1.10
   3 -15 -10    1.70    1.06
  -3 -15 -10    3.17    1.45
  -3 -15  10    4.65    1.70
  -3  15 -10    4.27    0.87
  -3 -15  11   36.48    3.95
  -3  15 -11   37.26    2.53
   3 -15  11   41.07    3.20
   3 -15 -11   37.65    4.18
  -3 -15 -11   32.92    3.83
  -3  15 -12   47.45    3.07
  -3 -15 -12   44.83    4.47
  -3 -15  12   43.72    4.46
   3 -15  12   54.44    3.83
   3 -15  13   50.58    3.85
  -3  15 -13   44.02    3.15
  -3 -15  13   46.24    4.49
  -3 -15  14   20.43    3.09
   3 -15  14   21.28    2.65
   3 -15  15   18.48    2.52
  -3 -15  15   14.02    2.58
   3 -15  16   11.78    2.11
  -3 -15  16    6.36    1.59
   3 -15  17    0.99    1.00
  -3 -15  17    1.41    1.25
   3 -15  18    3.87    1.47
  -3 -15  18    5.31    2.09
   3 -15  19   12.61    2.47
  -3 -15  19   12.39    2.85
  -3 -15  20  200.56   10.44
   3 -15  20  200.88    9.42
   3 -15  21    9.75    2.02
  -3 -15  21   14.47    2.94
   3 -15  22    3.26    1.58
  -3 -15  22    2.70    1.46
  -3 -15  23    5.36    2.09
   3 -15  23    3.09    1.46
   3 -15  24    5.19    1.82
  -3 -15  24    7.12    2.40
   3 -15  25   -0.20    0.85
  -3 -15  25   -1.93    1.44
   3 -15  26    9.72    2.26
  -3 -15  26   13.15    3.02
   3 -15  27   13.48    2.63
  -3 -15  27    9.05    2.70
   3 -15  28   14.98    2.76
  -3 -15  28   16.71    3.52
  -3 -15  29   19.12    3.87
  -3 -15  30    1.64    1.43
  -3 -15  31    2.44    1.67
  -3 -15  32    2.31    2.06
  -3 -15  33   39.60    5.93
  -3 -15  34   43.36    6.19
  -3 -16   0   -0.51    1.28
   3 -16   0   -0.27    0.31
  -3 -16  -1   73.95    5.76
   3 -16  -1   78.40    3.28
  -3 -16   1   82.22    6.02
   3 -16  -1   77.68    3.49
   3 -16   1   76.08    2.97
  -3 -16  -2  130.14    7.78
  -3 -16   2  105.50    6.99
   3 -16  -2  125.30    4.45
   3 -16   2  116.13    3.70
   3 -16  -2  126.50    4.81
   3 -16  -3   37.73    2.40
  -3 -16  -3   38.76    4.13
  -3 -16   3   35.77    3.99
   3 -16   3   33.64    1.82
   3 -16  -3   39.27    2.82
  -3 -16  -4   43.04    4.48
   3 -16  -4   47.44    2.80
  -3 -16   4   44.71    4.45
   3 -16   4   47.32    2.17
   3 -16  -4   50.02    3.41
   3 -16  -5  158.66    6.60
   3 -16   5  156.68    4.56
  -3 -16   5  159.74    8.55
  -3 -16  -5  143.90    8.24
   3 -16  -5  155.43    5.64
   3 -16   6   57.11    2.67
  -3 -16   6   53.00    4.89
   3 -16  -6   58.02    4.13
   3 -16  -6   62.79    3.54
  -3 -16  -6   56.64    5.09
   3 -16  -7  392.16   12.51
   3 -16   7  408.66    9.35
  -3 -16   7  412.84   14.29
  -3 -16  -7  380.54   14.23
  -3 -16  -8  195.02    9.79
   3 -16  -8  188.81    8.61
   3 -16   8  195.90    6.13
  -3 -16   8  170.29    8.82
   3 -16  -9   13.48    2.32
   3 -16   9   14.52    1.60
  -3 -16   9   13.43    2.49
  -3 -16  -9   13.71    2.51
   3 -16 -10   36.89    4.04
   3 -16  10   40.80    2.97
  -3  16 -10   43.44    2.68
  -3 -16  10   48.09    4.55
  -3 -16 -10   29.46    3.78
  -3 -16  11   53.51    5.03
   3 -16  11   60.78    3.86
  -3 -16 -11   54.84    5.10
  -3 -16  12    4.81    1.47
   3 -16  12    5.24    1.40
  -3 -16 -12    3.77    1.55
  -3 -16  13    1.76    1.10
   3 -16  13    1.53    1.06
  -3 -16 -13    0.71    1.07
  -3 -16  14    1.88    1.29
   3 -16  14    1.31    1.02
  -3 -16 -14    1.80    1.23
   3 -16  15  118.15    6.37
  -3 -16  15  106.81    7.16
   3 -16  16  156.51    7.52
  -3 -16  16  143.71    8.47
   3 -16  17    4.98    1.43
  -3 -16  17    4.75    1.79
   3 -16  18  110.95    6.57
  -3 -16  18  120.77    7.96
   3 -16  19  221.46    9.65
  -3 -16  19  223.93   11.14
   3 -16  20   12.84    2.47
  -3 -16  20    9.92    2.69
   3 -16  21  175.13    8.84
  -3 -16  21  146.65    9.11
   3 -16  22  132.75    7.70
  -3 -16  22  121.69    8.38
   3 -16  23    2.96    1.64
  -3 -16  23   -1.07    1.23
  -3 -16  24   48.65    5.50
   3 -16  24   55.48    5.06
  -3 -16  25    5.43    2.43
  -3 -16  26   37.90    5.00
  -3 -16  27   30.66    4.61
  -3 -16  28   30.58    4.67
  -3 -16  29   46.88    5.87
  -3 -16  30   37.66    5.29
  -3 -16  31    6.99    2.91
  -3 -16  32   53.52    6.60
  -3 -16  33   80.18    8.14
   3 -17   0    0.08    0.41
  -3 -17   0    3.54    1.61
  -3 -17   1    1.25    1.09
   3 -17   1    2.00    0.57
  -3 -17  -1    3.13    1.44
   3 -17  -1    2.28    0.64
  -3 -17  -2   46.00    4.66
   3 -17  -2   41.84    2.58
  -3 -17   2   41.55    4.33
   3 -17   2   40.80    2.20
   3 -17  -2   43.40    2.81
   3 -17  -3    0.52    0.52
   3 -17  -3    0.04    0.38
  -3 -17  -3   -0.07    0.85
   3 -17   3   -0.37    0.38
  -3 -17   3    0.63    1.19
   3 -17  -4    6.73    1.35
   3 -17   4    5.01    0.74
  -3 -17   4    6.03    1.57
   3 -17  -4    5.09    0.98
  -3 -17  -4    6.50    1.84
   3 -17  -5   11.52    1.75
   3 -17  -5    8.40    1.37
   3 -17   5    8.47    1.00
  -3 -17   5    7.01    1.76
  -3 -17  -5    4.97    1.64
  -3 -17  -6    1.82    1.05
   3 -17  -6    2.19    0.83
   3 -17  -6    2.27    0.88
   3 -17   6    1.71    0.55
  -3 -17   6    2.02    1.38
   3 -17  -7    3.24    1.01
   3 -17   7    3.45    0.76
  -3 -17   7    2.75    1.26
   3 -17  -7    2.63    0.89
  -3 -17  -7    3.81    1.60
   3 -17  -8    2.71    1.27
   3 -17   8    1.34    0.56
  -3 -17   8    0.77    0.78
  -3 -17  -8    2.13    1.44
   3 -17  -9   51.57    4.58
  -3 -17  -9   59.56    5.35
  -3 -17   9   47.30    4.71
   3 -17   9   52.13    3.11
   3 -17  10    0.67    0.47
  -3 -17  10    0.39    0.85
  -3 -17 -10    1.08    1.20
  -3 -17  11   23.59    3.36
   3 -17  11   26.68    2.51
  -3 -17 -11   27.56    3.81
  -3 -17  12    9.34    2.16
   3 -17  12   11.10    1.69
  -3 -17 -12    8.33    2.22
  -3 -17  13    2.58    0.80
   3 -17  13    4.70    1.41
  -3 -17 -13    2.88    1.32
  -3 -17  14   34.70    4.07
   3 -17  14   35.95    3.32
  -3 -17 -14   35.66    4.47
  -3 -17 -15   10.74    2.73
  -3 -17  15   10.94    2.45
   3 -17  15    6.68    1.60
   3 -17  16   19.52    2.59
  -3 -17  16   20.87    3.37
   3 -17  17   14.97    2.40
  -3 -17  17   22.71    3.50
   3 -17  18    6.13    1.65
  -3 -17  18    8.07    2.03
   3 -17  19   41.41    4.02
  -3 -17  19   38.72    4.63
   3 -17  20    5.64    1.73
  -3 -17  20    3.78    1.45
  -3 -17  21   40.79    4.86
  -3 -17  22    2.38    1.68
  -3 -17  23   34.32    4.50
  -3 -17  24   -0.02    1.19
  -3 -17  25   25.31    4.08
  -3 -17  26    2.25    1.47
  -3 -17  27    2.61    1.67
  -3 -17  28   56.12    6.29
  -3 -17  29   10.43    2.78
  -3 -17  30    7.40    2.69
  -3 -17  31   -0.18    1.21
  -3 -17  32    6.88    2.55
  -3 -18   0   -1.03    1.01
   3 -18   0    0.11    0.46
   3 -18   1  107.04    4.09
   3 -18  -1  108.48    4.39
  -3 -18   1  100.44    7.07
  -3 -18  -1  101.84    7.19
  -3 -18   2   20.43    3.12
  -3 -18  -2   27.36    3.73
   3 -18  -2   23.83    2.02
   3 -18   2   21.98    1.69
  -3 -18  -3  189.21    9.87
  -3 -18   3  165.92    9.23
   3 -18   3  162.97    5.05
   3 -18  -3  165.97    5.89
   3 -18  -4   54.86    3.34
  -3 -18  -4   59.09    5.37
  -3 -18   4   50.33    4.94
   3 -18   4   54.23    2.63
  -3 -18  -5   10.82    2.52
   3 -18  -5    7.12    1.25
   3 -18   5    7.58    0.97
  -3 -18   5    8.87    2.25
  -3 -18  -6   19.52    3.11
   3 -18   6   20.61    1.69
  -3 -18   6   23.98    3.39
   3 -18  -6   20.56    2.14
   3 -18   7   20.67    1.75
  -3 -18  -7   16.98    3.04
  -3 -18   7   22.10    3.24
   3 -18  -7   15.97    2.01
   3 -18   8    9.28    1.23
  -3 -18   8    4.93    1.62
   3 -18  -8    9.47    1.62
  -3 -18  -8    8.62    2.09
   3 -18   9    7.50    1.17
  -3 -18   9    8.31    1.96
  -3 -18  -9   11.29    2.63
  -3 -18  10  139.94    8.32
  -3 -18 -10  142.38    8.67
   3 -18  10  144.35    5.73
  -3 -18  11   59.85    5.50
   3 -18  11   58.75    3.69
  -3 -18 -11   54.66    5.30
   3 -18  12   27.52    2.64
  -3 -18  12   24.09    3.52
  -3 -18 -12   26.08    3.68
   3 -18  13   36.01    3.22
  -3 -18  13   33.71    4.06
  -3 -18 -13   31.29    4.11
  -3 -18 -14  116.49    7.99
  -3 -18  14  131.20    8.22
  -3 -18 -15   56.89    5.54
  -3 -18  15   63.83    5.72
  -3 -18 -16   35.62    4.44
  -3 -18  16   32.88    4.23
  -3 -18  17  201.57   10.66
  -3 -18  18   20.72    3.60
  -3 -18  19    1.53    1.45
  -3 -18  20    9.35    2.51
  -3 -18  21    8.71    2.34
  -3 -18  22   26.94    4.05
  -3 -18  23    7.77    2.23
  -3 -18  24   78.16    7.03
  -3 -18  25    5.15    1.96
  -3 -18  26    0.41    1.26
  -3 -18  27    4.14    2.08
  -3 -18  28   94.07    8.26
  -3 -18  29   17.39    3.74
  -3 -18  30   16.83    3.69
  -3 -18  31   61.54    6.93
  -3 -19   0   -0.11    0.98
   3 -19   0    0.55    0.54
   3 -19   1  107.20    4.28
   3 -19  -1   96.33    4.31
  -3 -19   1   87.98    6.89
  -3 -19  -1   97.49    7.15
  -3 -19  -2   10.80    2.61
  -3 -19   2    9.93    2.34
   3 -19  -2   10.88    1.54
   3 -19   2   11.98    1.32
   3 -19  -3   13.72    1.66
  -3 -19  -3   11.65    2.64
  -3 -19   3   13.79    2.80
   3 -19   3   10.43    1.19
   3 -19  -4    0.29    0.63
  -3 -19  -4   -0.53    1.30
  -3 -19   4   -0.48    1.42
   3 -19   4   -0.43    0.44
   3 -19  -5   34.53    2.79
   3 -19   5   32.78    2.14
  -3 -19   5   32.35    4.02
  -3 -19  -5   37.16    4.43
  -3 -19  -6    0.90    1.33
   3 -19  -6    1.76    1.00
  -3 -19   6    0.20    0.91
  -3 -19  -7   20.04    3.28
  -3 -19   7   16.56    2.90
   3 -19  -7   17.87    2.14
  -3 -19   8   19.10    3.00
  -3 -19  -8   17.80    3.07
   3 -19  -8   19.24    2.22
  -3 -19   9    4.79    1.36
   3 -19  -9    9.70    1.67
  -3 -19  -9    8.22    2.23
  -3 -19  10    3.07    1.47
  -3 -19 -10    2.43    1.62
  -3 -19  11    8.58    2.26
  -3 -19 -11   10.14    2.36
  -3 -19  12    0.91    1.38
  -3 -19 -12    0.70    1.38
  -3 -19  13   25.14    3.75
  -3 -19 -13   21.78    3.65
  -3 -19  14   -1.22    0.93
  -3 -19 -14    1.00    1.63
  -3 -19 -15   60.51    5.90
  -3 -19  15   56.03    5.49
  -3 -19 -16    2.12    1.76
  -3 -19  16    3.35    1.70
  -3 -19 -17    3.05    1.72
  -3 -19  17    3.01    1.22
  -3 -19 -18    2.87    1.65
  -3 -19  18    3.26    1.32
  -3 -19  19    5.61    2.02
  -3 -19  20    3.10    1.38
  -3 -19  21   -2.48    1.54
  -3 -19  22   58.55    5.96
  -3 -19  23    1.20    1.57
  -3 -19  24   33.83    4.68
  -3 -19  25   10.81    2.83
  -3 -19  26    3.22    2.36
  -3 -19  27   16.42    3.46
  -3 -19  28    1.93    1.86
  -3 -19  29    1.52    1.64
  -3 -19  30    3.05    2.14
  -3 -20   0   -2.56    1.66
  -3 -20  -1   16.16    2.88
  -3 -20   1   17.24    3.17
   3 -20  -2  100.46    4.67
  -3 -20   2  108.19    7.58
  -3 -20  -2  103.46    7.54
  -3 -20  -3   80.27    6.67
  -3 -20   3   96.43    7.10
   3 -20  -3   81.93    4.29
  -3 -20  -4   72.04    6.32
  -3 -20   4   77.53    6.40
   3 -20  -4   73.78    4.12
   3 -20  -5    7.60    1.43
  -3 -20   5    5.12    1.65
  -3 -20  -5   10.21    2.36
   3 -20  -6   78.10    4.52
  -3 -20  -6   77.06    6.57
  -3 -20   6   76.31    6.42
  -3 -20  -7   47.97    5.05
  -3 -20   7   38.71    4.55
   3 -20  -7   44.61    3.43
  -3 -20   8  159.64    9.36
  -3 -20  -8  179.99   10.09
   3 -20  -8  172.44    7.21
  -3 -20   9   48.18    5.17
   3 -20  -9   55.05    4.01
  -3 -20  -9   49.57    5.30
   3 -20 -10   15.42    2.23
  -3 -20 -10   19.89    3.34
  -3 -20  10   15.32    3.01
  -3 -20  11  184.25   10.14
  -3 -20 -11  183.17   10.38
  -3 -20 -12  102.40    7.78
  -3 -20  12  115.16    7.94
  -3 -20  13    6.21    2.12
  -3 -20 -13    2.32    1.44
  -3 -20  14    2.65    1.74
  -3 -20 -14    0.99    1.23
  -3 -20 -15   66.07    6.42
  -3 -20  15   63.17    5.93
  -3 -20 -16   66.05    6.45
  -3 -20  16   77.12    6.56
  -3 -20  17    0.78    1.17
  -3 -20 -17    1.05    1.41
  -3 -20 -18   44.92    5.37
  -3 -20  18   62.78    6.14
  -3 -20 -19    8.77    2.53
  -3 -20  19   10.89    2.81
  -3 -20  20    6.85    2.35
  -3 -20  21    2.55    1.50
  -3 -20  22   73.84    7.00
  -3 -20  23   50.97    5.65
  -3 -20  24    2.40    1.97
  -3 -20  25   61.24    6.45
  -3 -20  26   54.98    6.22
  -3 -20  27    3.65    2.77
  -3 -20  28    1.64    1.59
  -3 -20  29   33.72    5.09
  -3 -21   0    2.51    1.40
  -3 -21  -1   24.98    3.71
  -3 -21   1   23.51    3.73
  -3 -21   2  110.44    7.97
  -3 -21  -2  105.69    7.80
  -3 -21  -3    2.33    1.45
  -3 -21   3   -0.06    1.20
  -3 -21  -4    4.38    1.77
  -3 -21   4    3.95    1.88
  -3 -21   5   -0.88    1.13
  -3 -21  -5   -0.91    1.19
  -3 -21   6    0.87    0.89
  -3 -21  -6   -1.57    1.41
  -3 -21   7    9.59    2.46
  -3 -21  -7   12.18    2.76
  -3 -21  -8    5.45    1.79
  -3 -21   8    4.72    1.70
  -3 -21  -9   -0.22    1.31
  -3 -21   9    0.48    1.13
  -3 -21  10    0.51    1.04
  -3 -21 -10    0.40    1.19
  -3 -21  11   26.33    3.87
  -3 -21 -11   28.35    4.21
  -3 -21 -12   23.36    3.89
  -3 -21  12   27.67    3.93
  -3 -21  13    7.20    1.98
  -3 -21 -13    5.90    2.15
  -3 -21  14   -1.19    1.39
  -3 -21 -14    2.08    1.97
  -3 -21 -15   51.13    5.61
  -3 -21  15   53.88    5.55
  -3 -21  16   32.18    4.35
  -3 -21 -16   26.44    4.17
  -3 -21  17   37.98    4.77
  -3 -21 -17   31.48    4.43
  -3 -21 -18   -0.53    1.19
  -3 -21  18    0.48    1.41
  -3 -21 -19   -0.92    1.32
  -3 -21  19   -0.04    1.39
  -3 -21 -20    0.99    1.54
  -3 -21  20    2.79    1.58
  -3 -21 -21    3.26    1.68
  -3 -21  21    6.20    2.47
  -3 -21  22    3.38    1.77
  -3 -21  23    3.54    1.62
  -3 -21  24   14.89    3.29
  -3 -21  25   14.11    3.31
  -3 -21  26    6.99    2.66
  -3 -21  27    1.37    1.93
  -3 -21  28    3.90    2.16
  -3 -22   0    1.98    1.39
  -3 -22  -1    1.53    1.00
  -3 -22   1    2.34    1.84
  -3 -22   2  124.77    8.56
  -3 -22  -2  114.52    8.35
  -3 -22   3   66.73    6.23
  -3 -22  -3   77.28    6.88
  -3 -22  -4   15.97    3.14
  -3 -22   4    9.07    2.27
  -3 -22  -5   61.02    6.03
  -3 -22   5   45.72    5.15
  -3 -22   6   42.32    4.99
  -3 -22  -6   41.86    5.03
  -3 -22   7    1.25    1.01
  -3 -22  -7    1.99    1.15
  -3 -22  -8   -1.07    1.65
  -3 -22   8    1.04    1.40
  -3 -22  -9    2.57    1.33
  -3 -22   9    6.71    1.91
  -3 -22  10   82.49    7.02
  -3 -22 -10   82.05    7.05
  -3 -22  11  104.77    7.87
  -3 -22 -11  105.09    8.04
  -3 -22 -12   72.57    6.82
  -3 -22  12   85.79    7.10
  -3 -22  13    1.79    1.53
  -3 -22 -13    2.06    1.76
  -3 -22  14    3.08    1.45
  -3 -22 -14    4.85    1.98
  -3 -22  15   23.53    3.91
  -3 -22 -15   25.80    4.16
  -3 -22 -16   36.37    4.95
  -3 -22  16   47.22    5.35
  -3 -22  17   29.17    4.22
  -3 -22 -17   18.57    3.66
  -3 -22 -18    5.22    1.86
  -3 -22  18    1.97    1.70
  -3 -22  19   49.28    5.59
  -3 -22 -19   51.73    6.02
  -3 -22  20   36.18    4.96
  -3 -22 -20   35.10    5.01
  -3 -22 -21    9.95    2.62
  -3 -22  21   11.96    3.10
  -3 -22 -22   12.29    2.99
  -3 -22  22   11.84    2.78
  -3 -22 -23    9.68    3.23
  -3 -22  23    9.65    2.77
  -3 -22  24  101.36    8.51
  -3 -22  25   36.18    5.16
  -3 -22  26   12.63    3.25
  -3 -22  27    4.69    2.04
  -3 -23   0    0.70    1.01
  -3 -23  -1    2.23    1.77
  -3 -23   1    1.09    1.36
  -3 -23  -2    0.36    1.11
  -3 -23   2    2.71    1.70
  -3 -23  -3   30.11    4.22
  -3 -23   3   26.14    4.15
  -3 -23  -4   -0.46    1.68
  -3 -23   4    1.36    1.25
  -3 -23  -5   24.44    4.10
  -3 -23   5   20.25    3.67
  -3 -23   6   12.81    2.93
  -3 -23  -6    8.46    2.24
  -3 -23   7   -2.03    1.50
  -3 -23  -7   -0.28    1.25
  -3 -23   8   27.67    4.07
  -3 -23  -8   29.56    4.45
  -3 -23   9   41.84    5.04
  -3 -23  -9   39.34    5.01
  -3 -23 -10    9.58    2.61
  -3 -23  10    5.91    2.04
  -3 -23  11   22.58    3.84
  -3 -23 -11   23.59    3.86
  -3 -23  12   30.50    4.25
  -3 -23 -12   31.56    4.62
  -3 -23  13   -2.10    1.61
  -3 -23 -13    7.83    2.48
  -3 -23  14   25.18    3.99
  -3 -23 -14   19.76    3.79
  -3 -23 -15   -0.72    1.03
  -3 -23  15   -0.43    1.34
  -3 -23 -16   -1.70    1.80
  -3 -23  16   -0.14    1.07
  -3 -23  17   13.56    3.04
  -3 -23 -17   13.61    3.38
  -3 -23 -18   16.44    3.46
  -3 -23  18   24.28    4.19
  -3 -23 -19    2.07    1.34
  -3 -23  19    2.02    1.57
  -3 -23 -20    0.22    1.33
  -3 -23  20    1.02    1.77
  -3 -23 -21    1.13    1.50
  -3 -23  21    5.86    2.23
  -3 -23  22    8.32    2.67
  -3 -23 -22    8.07    2.65
  -3 -23 -23   48.40    6.43
  -3 -23  23   39.76    5.43
  -3 -23  24    5.56    2.56
  -3 -23  25   10.24    3.13
  -3 -24   0   -2.00    2.13
  -3 -24   1   65.60    6.46
  -3 -24  -1   63.83    6.33
  -3 -24  -2   -1.05    1.48
  -3 -24   2   -0.90    1.40
  -3 -24   3   69.56    6.68
  -3 -24  -3   64.30    6.50
  -3 -24   4   87.52    7.57
  -3 -24  -4   92.69    7.74
  -3 -24  -5    4.01    1.99
  -3 -24   5    5.54    2.49
  -3 -24   6  295.79   13.88
  -3 -24  -6  268.83   13.74
  -3 -24   7    9.33    2.77
  -3 -24  -7    5.46    2.58
  -3 -24   8  264.83   13.12
  -3 -24  -8  241.60   13.07
  -3 -24   9   63.10    6.37
  -3 -24  -9   59.08    6.37
  -3 -24  10   66.77    6.61
  -3 -24 -10   70.05    6.76
  -3 -24  11   48.57    5.46
  -3 -24 -11   52.02    5.80
  -3 -24  12   -1.90    1.93
  -3 -24 -12    2.95    2.23
  -3 -24 -13    8.06    2.45
  -3 -24  13    5.91    2.24
  -3 -24  14    2.33    1.74
  -3 -24 -14    3.65    1.91
  -3 -24  15   33.71    4.76
  -3 -24 -15   35.04    4.90
  -3 -24 -16    2.81    1.89
  -3 -24  16    0.75    1.43
  -3 -24 -17   15.43    3.40
  -3 -24  17   16.16    3.65
  -3 -24  18   65.50    6.64
  -3 -24 -18   62.39    6.79
  -3 -24 -19   13.29    3.44
  -3 -24  19   10.28    2.83
  -3 -24 -20  148.67   10.74
  -3 -24  20  159.67   10.61
  -3 -24 -21    0.22    2.11
  -3 -24  21    4.20    2.57
  -3 -24  22  109.90    8.85
  -3 -24 -22  110.81    9.60
  -3 -24  23  127.10    9.59
  -3 -24  24   53.78    6.42
  -3 -25   0   -0.74    1.71
  -3 -25   1    7.19    2.03
  -3 -25  -1    7.81    2.36
  -3 -25  -2    4.32    1.70
  -3 -25   2    1.62    1.25
  -3 -25  -3    2.92    1.91
  -3 -25   3    2.32    1.41
  -3 -25   4   96.34    7.98
  -3 -25  -4   97.67    8.21
  -3 -25  -5   10.12    2.73
  -3 -25   5    8.06    2.40
  -3 -25  -6   23.74    4.11
  -3 -25   6   25.30    4.15
  -3 -25  -7   48.80    5.77
  -3 -25   7   45.92    5.66
  -3 -25   8   22.00    4.02
  -3 -25  -8   22.70    4.21
  -3 -25   9   -0.30    1.66
  -3 -25  -9    4.31    2.23
  -3 -25 -10  101.76    8.47
  -3 -25  10  103.84    8.28
  -3 -25 -11    4.57    2.43
  -3 -25  11    3.69    1.84
  -3 -25 -12    1.72    1.82
  -3 -25  12   -1.30    1.59
  -3 -25  13    0.59    1.06
  -3 -25 -13   -1.30    1.72
  -3 -25  14    4.49    1.72
  -3 -25 -14    3.94    1.93
  -3 -25  15    2.73    1.10
  -3 -25 -15    5.38    2.06
  -3 -25 -16   -1.12    1.69
  -3 -25  16   -0.43    1.47
  -3 -25  17   -0.79    1.23
  -3 -25 -17    1.07    1.19
  -3 -25 -18   12.65    3.02
  -3 -25  18    9.55    2.50
  -3 -25 -19    4.40    2.20
  -3 -25  19    3.92    1.82
  -3 -25 -20   10.81    3.21
  -3 -25  20   11.07    2.93
  -3 -25  21   12.67    3.16
  -3 -25  22   24.42    4.35
  -3 -26   0   -1.45    2.00
  -3 -26   1  -10.06    2.77
  -3 -26  -1   -3.13    2.48
  -3 -26  -2   43.94    5.49
  -3 -26   2   43.69    5.48
  -3 -26  -3   -0.91    2.10
  -3 -26   3    1.06    1.22
  -3 -26  -4   20.38    3.85
  -3 -26   4   24.47    4.15
  -3 -26   5  106.17    8.61
  -3 -26  -5  112.06    8.95
  -3 -26   6   70.93    7.04
  -3 -26  -6   62.83    7.01
  -3 -26   7  496.43   19.46
  -3 -26  -7  511.85   20.08
  -3 -26   8  152.45   10.28
  -3 -26  -8  161.56   10.82
  -3 -26   9  175.87   11.20
  -3 -26  -9  168.54   11.20
  -3 -26  10   88.12    7.72
  -3 -26 -10   93.74    8.24
  -3 -26  11    0.81    1.07
  -3 -26 -11    2.88    1.86
  -3 -26  12    7.18    2.21
  -3 -26 -12    3.83    2.06
  -3 -26 -13    2.26    1.49
  -3 -26  13    0.85    1.32
  -3 -26  14   17.84    3.35
  -3 -26 -14   25.85    4.53
  -3 -26  15    3.01    1.78
  -3 -26 -15    5.90    2.25
  -3 -26 -16   34.68    4.99
  -3 -26  16   34.71    4.84
  -3 -26 -17   11.83    3.18
  -3 -26  17   15.89    3.42
  -3 -26 -18    3.41    2.06
  -3 -26  18    3.66    2.09
  -3 -26  19   67.54    6.95
  -3 -26  20   13.96    3.55
  -3 -27   0   -2.26    2.10
  -3 -27   1    4.67    1.79
  -3 -27  -1    1.53    1.19
  -3 -27   2    1.79    1.71
  -3 -27  -2   -2.73    2.13
  -3 -27  -3   11.62    3.00
  -3 -27   3   11.91    3.01
  -3 -27  -4    5.76    2.36
  -3 -27   4   -2.04    1.58
  -3 -27  -5   30.00    4.74
  -3 -27   5   35.82    5.01
  -3 -27  -6   24.29    4.45
  -3 -27   6   31.50    4.86
  -3 -27  -7    6.43    2.40
  -3 -27   7    9.95    2.99
  -3 -27   8    0.91    1.12
  -3 -27  -8    2.58    1.81
  -3 -27   9   31.28    4.63
  -3 -27  -9   23.93    4.28
  -3 -27  10    3.74    1.82
  -3 -27 -10    6.40    2.38
  -3 -27  11    4.75    1.90
  -3 -27 -11    5.47    2.35
  -3 -27  12    6.45    2.07
  -3 -27 -12    6.54    2.39
  -3 -27  13    2.53    1.56
  -3 -27 -13   -0.44    1.41
  -3 -27  14    4.03    1.98
  -3 -27 -14   -2.27    1.71
  -3 -27 -15    2.89    2.29
  -3 -27  15   -0.61    1.22
  -3 -27  16    4.28    1.67
  -3 -27  17    0.05    1.37
  -3 -27  18    5.90    2.20
  -3 -28   0   -1.31    1.96
  -3 -28   1    0.32    1.76
  -3 -28  -1    2.76    1.70
  -3 -28   2    4.22    2.11
  -3 -28  -2    2.80    1.48
  -3 -28   3   44.61    5.66
  -3 -28  -3   53.12    6.18
  -3 -28  -4   -1.04    1.31
  -3 -28   4   -0.31    1.25
  -3 -28   5   54.49    6.31
  -3 -28  -5   59.94    6.77
  -3 -28   6   71.50    7.22
  -3 -28  -6   70.85    7.35
  -3 -28  -7   44.63    5.86
  -3 -28   7   41.29    5.69
  -3 -28   8   85.42    8.00
  -3 -28  -8   81.84    7.99
  -3 -28   9   76.09    7.34
  -3 -28  -9   79.18    7.91
  -3 -28  10   -2.80    1.96
  -3 -28 -10    0.16    1.51
  -3 -28  11   27.82    4.39
  -3 -28 -11   34.06    5.12
  -3 -28  12    4.67    2.21
  -3 -28 -12    2.43    1.78
  -3 -28  13   14.15    3.36
  -3 -28  14   16.57    3.71
  -3 -28  15   48.95    6.00
  -3 -29   0   -1.22    1.67
  -3 -29   1    7.42    2.64
  -3 -29  -1    6.80    2.33
  -3 -29   2   12.01    2.96
  -3 -29  -2   10.10    2.71
  -3 -29   3    4.26    2.31
  -3 -29  -3    7.23    2.47
  -3 -29   4    3.45    2.20
  -3 -29  -4   -0.89    1.84
  -3 -29  -5    1.84    1.11
  -3 -29   5    0.65    1.48
  -3 -29  -6    8.00    2.42
  -3 -29   6    5.70    1.78
  -3 -29  -7    4.98    1.85
  -3 -29   7    3.25    1.88
  -3 -29   8   14.95    3.37
  -3 -29  -8    8.94    2.81
  -3 -29   9    3.93    1.75
  -3 -29  -9    4.48    2.13
  -3 -29  10   -0.97    1.81
  -3 -29  11    0.13    1.23
  -3 -29  12    5.37    1.90
  -3 -30   0   -1.53    1.75
  -3 -30   1    6.22    2.23
  -3 -30  -1    5.42    2.24
  -3 -30   2   19.71    4.00
  -3 -30  -2   18.52    4.19
  -3 -30   3    6.83    2.50
  -3 -30  -3   12.25    3.32
  -3 -30   4   35.32    5.35
  -3 -30   5    1.30    1.55
  -3 -30   6   -1.24    1.63
   4   0   0   14.41    1.72
  -4   0   0   14.27    1.65
   4   0  -1    0.05    0.47
  -4   0   1    0.29    0.51
  -4   0  -1    1.08    0.50
  -4   0   2  243.11    7.45
  -4   0  -2  233.64    7.23
   4   0  -2  242.40    7.77
  -4   0   3   -0.01    0.38
  -4   0  -3    0.78    0.68
   4   0  -3   -0.32    0.55
  -4   0  -4    3.72    0.95
   4   0  -4    3.40    0.86
  -4   0   4    3.16    0.82
  -4   0  -5   -0.35    0.56
  -4   0   5    0.58    0.50
   4   0  -5   -0.34    0.52
  -4   0  -6  241.55    7.64
   4   0  -6  252.12    8.62
  -4   0   6  241.64    7.80
  -4   0  -7    0.06    0.43
   4   0  -7    0.70    0.47
  -4   0   7   -0.11    0.60
   4   0  -8  398.60   11.78
  -4   0   8  412.07   11.27
   4   0  -9    0.07    0.62
  -4   0   9    0.27    0.47
  -4   0  10  200.10    7.52
  -4   0  11   -0.01    0.79
  -4   0  12  475.04   13.22
  -4   0  13    1.04    0.93
  -4   0  14   26.61    2.83
  -4   0  15    0.35    0.74
  -4   0  16   13.21    2.18
  -4   0  17    1.01    0.91
  -4   0  18   16.86    2.56
  -4   0  19    1.32    1.19
  -4   0  20    1.01    0.80
  -4   0  21   -0.65    1.02
  -4   0  22   69.28    5.88
  -4   0  23   -1.92    1.75
  -4   0  24  342.50   14.36
  -4   0  25   -1.67    1.28
  -4   0  26  234.83   12.24
  -4   0  27    0.96    1.22
  -4   0  28   15.14    3.05
  -4   0  29   -0.71    1.94
  -4   0  30   41.98    5.38
  -4   0  31   -0.68    1.49
  -4   0  32   49.36    5.95
  -4   0  33    0.24    1.69
  -4   0  34   70.28    7.30
  -4   0  35    0.50    1.82
  -4   0  36    0.54    1.53
  -4   0  37    3.85    2.41
  -4   0  38  364.54   17.81
  -4  -1   0    7.98    1.22
   4   1   0    8.75    1.39
   4  -1   0    7.98    1.19
  -4   1   0    9.21    1.25
   4   1  -1   88.31    4.52
  -4   1   1   88.85    3.99
   4  -1  -1   92.93    4.31
  -4  -1   1   87.81    4.31
  -4   1  -1   88.90    3.92
  -4  -1  -1   92.44    4.37
  -4   1  -2    4.43    0.84
   4  -1  -2    5.45    1.02
  -4   1   2    4.43    0.96
   4   1  -2    4.51    1.10
  -4  -1  -2    5.42    1.03
  -4  -1   2    5.08    1.09
  -4   1   3  234.65    7.39
  -4   1  -3  241.67    7.17
   4  -1  -3  257.96    7.94
  -4  -1   3  246.38    7.81
  -4  -1  -3  249.63    7.79
   4   1  -3  262.05    8.52
  -4  -1   4   16.13    1.84
  -4  -1  -4   16.51    1.82
  -4   1  -4   15.48    1.64
   4  -1  -4   17.91    1.96
   4   1  -4   16.18    2.00
  -4   1   4   15.27    1.76
  -4  -1   5   37.92    2.89
  -4  -1  -5   38.64    2.86
   4  -1  -5   38.71    2.99
  -4   1   5   40.02    2.77
   4   1  -5   40.24    3.23
  -4   1  -5   38.63    2.65
  -4   1  -6   34.02    2.48
  -4  -1  -6   33.78    2.70
   4  -1  -6   33.20    2.85
   4   1  -6   36.22    3.12
  -4   1   6   34.29    2.65
  -4  -1   6   33.00    2.69
  -4  -1   7    3.85    1.05
  -4  -1  -7    3.83    1.00
   4  -1  -7    3.33    0.96
  -4   1   7    3.03    0.96
  -4   1  -7    3.59    1.00
   4   1  -7    3.09    0.92
  -4  -1   8   -0.69    0.80
   4  -1  -8   -0.03    0.66
  -4   1   8    0.26    0.64
   4   1  -8    1.25    0.81
   4  -1  -9  109.15    5.53
  -4   1   9  120.69    5.39
  -4  -1   9  115.01    5.54
   4  -1 -10    2.97    1.16
  -4   1  10    4.31    1.19
  -4  -1  10    4.51    1.14
  -4   1  11  103.64    5.29
  -4  -1  11  107.23    5.51
  -4   1  12   43.45    3.51
  -4  -1  12   42.26    3.51
  -4   1  13  426.88   12.58
  -4  -1  13  434.69   12.83
  -4   1  14   14.81    2.26
  -4  -1  14   10.00    1.85
  -4   1  15   13.16    2.10
  -4  -1  15   13.17    2.16
  -4   1  16   69.92    4.97
  -4  -1  16   72.28    5.04
  -4   1  17   42.44    4.05
  -4  -1  17   43.12    4.01
  -4   1  18   26.52    3.28
  -4  -1  18   21.63    2.85
  -4   1  19   38.83    4.14
  -4  -1  19   36.28    3.94
  -4   1  20  112.60    7.20
  -4  -1  20  111.91    7.03
  -4   1  21    0.28    1.09
  -4  -1  21    1.67    1.52
  -4  -1  22    7.52    2.02
  -4   1  22    4.22    1.72
  -4   1  23    2.13    1.25
  -4  -1  23    1.87    1.47
  -4   1  24    0.98    1.03
  -4  -1  24    5.86    1.89
  -4  -1  25   12.42    2.65
  -4   1  25   19.07    3.33
  -4   1  26   33.42    4.72
  -4  -1  26   39.49    4.75
  -4   1  27  136.97    9.40
  -4  -1  27  125.24    8.90
  -4  -1  28    3.67    1.89
  -4   1  28    2.68    1.58
  -4   1  29   22.99    4.09
  -4  -1  29   17.39    3.35
  -4   1  30   37.79    5.00
  -4  -1  30   33.31    4.92
  -4   1  31    1.36    1.79
  -4  -1  31    2.53    1.74
  -4   1  32    9.14    2.74
  -4  -1  32   13.88    3.14
  -4  -1  33   40.99    5.55
  -4   1  33   53.56    6.28
  -4  -1  34   76.55    7.81
  -4   1  34   80.59    8.07
  -4   1  35   13.03    3.15
  -4  -1  35   13.45    3.34
  -4  -1  36   16.42    3.80
  -4   1  36    8.63    3.35
  -4   1  37   15.65    3.66
  -4  -1  37    5.56    2.67
  -4   1  38    9.46    3.06
  -4  -1  38   11.64    3.38
  -4   2   0  446.81   10.27
   4   2   0  447.10   12.07
  -4  -2   0  449.14   11.59
   4  -2   0  458.72   10.69
  -4   2   1   96.84    4.01
  -4   2  -1  103.46    4.03
  -4  -2   1   95.13    4.65
   4   2  -1  100.35    5.05
  -4  -2  -1   98.64    4.74
   4  -2  -1   98.39    4.20
  -4   2   2  361.05    8.95
  -4  -2  -2  337.47    9.81
  -4  -2   2  350.85    9.96
   4  -2  -2  350.42    9.16
   4   2  -2  350.14   10.49
  -4   2  -2  350.19    8.58
  -4  -2   3   28.42    2.47
  -4  -2  -3   27.51    2.46
   4   2  -3   32.09    2.84
  -4   2  -3   33.49    2.20
   4  -2  -3   30.44    2.40
  -4   2   3   29.66    2.28
  -4  -2   4   21.07    2.12
  -4   2  -4   23.13    1.85
  -4  -2  -4   24.68    2.34
   4   2  -4   18.18    2.20
  -4   2   4   21.31    1.95
   4  -2  -4   19.82    1.99
   4   2  -5   45.66    3.64
  -4  -2  -5   45.91    3.22
  -4  -2   5   49.95    3.43
   4  -2  -5   54.96    3.41
  -4   2   5   48.77    3.02
  -4   2  -5   51.27    2.88
  -4  -2   6   37.36    3.00
  -4   2  -6   36.37    2.47
  -4  -2  -6   32.57    2.78
   4  -2  -6   34.36    2.76
  -4   2   6   33.86    2.58
   4   2  -6   32.69    3.10
   4   2  -7    8.83    1.64
  -4  -2  -7   15.03    1.94
  -4  -2   7   11.28    1.68
   4  -2  -7   11.04    1.61
  -4   2   7   12.09    1.61
  -4   2  -7   12.86    1.50
   4  -2  -8   99.00    4.98
  -4   2   8   92.11    4.63
  -4  -2   8  106.91    5.27
   4  -2  -9   32.79    2.88
  -4   2   9   36.27    2.88
  -4  -2   9   37.65    3.18
   4  -2 -10   18.96    2.30
  -4   2  10   23.38    2.42
  -4  -2  10   24.38    2.67
   4  -2 -11  275.29    9.86
  -4   2  11  306.72    9.68
  -4  -2  11  291.91    9.88
  -4   2  12   59.70    4.10
  -4  -2  12   62.63    4.35
  -4   2  13  350.66   11.19
  -4  -2  13  335.10   11.16
  -4   2 -13  352.56   10.80
  -4   2  14  163.02    7.38
  -4  -2  14  168.25    7.58
  -4   2 -14  165.28    7.23
  -4   2  15    6.90    1.76
  -4  -2  15    9.06    1.96
  -4  -2  16  365.11   12.41
  -4   2  16  366.81   12.59
  -4  -2  17   46.68    4.20
  -4   2  17   52.45    4.53
  -4   2  18   49.78    4.58
  -4  -2  18   55.58    4.59
  -4   2  19    1.50    1.11
  -4  -2  19    3.87    1.55
  -4   2  20    9.30    2.19
  -4  -2  20    7.94    1.94
  -4   2  21   75.93    6.16
  -4  -2  21   71.59    5.68
  -4   2  22   91.59    6.92
  -4  -2  22  100.62    6.96
  -4   2  23   36.69    4.59
  -4  -2  23   38.47    4.40
  -4   2  24   45.27    5.15
  -4  -2  24   49.55    5.10
  -4  -2  25  281.55   12.95
  -4   2  25  290.62   13.52
  -4   2  26   11.04    2.56
  -4  -2  26    8.98    2.42
  -4  -2  27  148.19    9.70
  -4   2  27  139.86    9.47
  -4   2  28   19.28    3.72
  -4  -2  28   27.05    4.31
  -4  -2  29   11.25    2.93
  -4   2  29    9.58    2.81
  -4  -2  30  126.85    9.48
  -4   2  30  126.93    9.30
  -4   2  31   56.28    6.20
  -4  -2  31   62.97    6.64
  -4  -2  32    2.24    1.31
  -4   2  32    8.24    2.66
  -4   2  33    8.13    2.34
  -4  -2  33    7.48    2.53
  -4  -2  34    1.62    1.41
  -4   2  34    3.29    2.05
  -4   2  35   42.78    5.73
  -4  -2  35   40.57    5.71
  -4   2  36    8.84    2.56
  -4  -2  36    1.52    1.44
  -4  -2  37   69.51    7.67
  -4   2  37   68.49    7.20
  -4   2  38   10.65    3.12
  -4   3   0 1320.92   22.95
  -4  -3   0 1348.52   25.75
   4   3   0 1282.69   26.28
   4  -3   0 1305.60   23.26
   4  -3  -1   55.98    2.93
   4   3  -1   59.55    4.05
  -4   3  -1   57.69    2.76
  -4  -3   1   66.55    3.93
  -4  -3  -1   61.06    3.82
  -4   3   1   58.96    2.91
  -4  -3  -2  738.17   16.46
   4  -3  -2  695.02   14.38
  -4  -3   2  719.71   16.28
  -4   3  -2  686.99   13.65
   4   3  -2  707.87   16.98
  -4   3   2  690.46   14.00
   4  -3  -3   39.72    2.57
  -4  -3   3   44.25    3.23
  -4  -3  -3   39.20    3.08
   4   3  -3   40.96    3.32
  -4   3   3   40.35    2.46
  -4   3  -3   41.06    2.30
   4  -3  -4    0.26    0.40
  -4  -3   4   -1.55    0.96
  -4  -3  -4    0.50    0.59
  -4   3  -4    0.69    0.33
  -4   3   4    0.46    0.46
   4   3  -4   -0.66    0.70
  -4  -3  -5   10.84    1.71
   4   3  -5    6.24    1.36
  -4  -3   5    9.40    1.57
  -4   3  -5    9.29    1.14
  -4   3   5   10.29    1.29
   4  -3  -5   10.30    1.48
  -4  -3   6  120.31    5.71
  -4   3  -6  102.82    4.07
   4  -3  -6  105.38    4.80
  -4  -3  -6   97.94    5.10
  -4   3   6  103.97    4.49
   4   3  -6  108.27    5.88
  -4   3  -7   39.65    2.50
   4  -3  -7   38.89    2.93
  -4   3   7   38.62    2.73
  -4  -3  -7   45.51    3.41
  -4  -3   7   43.67    3.41
   4  -3  -8   21.52    2.21
  -4   3   8   24.99    2.31
  -4  -3   8   25.41    2.60
  -4   3   9   30.17    2.61
  -4  -3   9   28.33    2.84
   4  -3  -9   22.74    2.33
   4  -3 -10   20.31    2.37
  -4   3  10   20.78    2.29
  -4  -3  10   20.45    2.42
   4  -3 -11   28.18    2.88
  -4   3  11   32.39    2.87
  -4  -3  11   30.34    3.06
  -4   3 -11   32.32    2.71
  -4   3  12  521.04   14.21
  -4  -3  12  509.21   14.54
  -4   3 -12  563.76   13.81
  -4   3  13    5.29    1.43
  -4   3 -13    7.30    1.46
  -4  -3  13    4.59    1.49
  -4   3  14  815.82   20.02
  -4  -3  14  814.02   19.85
  -4   3 -14  809.63   19.38
  -4   3 -15   21.98    2.72
  -4   3  15   29.16    3.26
  -4  -3  15   27.53    3.20
  -4   3  16  185.75    8.64
  -4  -3  16  171.45    8.17
  -4   3  17   14.29    2.58
  -4  -3  17   15.32    2.39
  -4   3  18    1.92    0.97
  -4  -3  18    3.59    1.31
  -4   3  19   18.54    2.98
  -4  -3  19   13.37    2.45
  -4  -3  20   17.03    3.01
  -4   3  20   17.03    2.79
  -4  -3  21   95.01    6.57
  -4   3  21   95.05    7.05
  -4   3  22    8.63    2.25
  -4  -3  22   14.72    2.66
  -4   3  23   -0.19    1.07
  -4  -3  23    3.13    1.82
  -4   3  24    8.27    2.25
  -4  -3  24   12.66    2.69
  -4  -3  25  175.44    9.92
  -4   3  25  185.15   10.51
  -4   3  26   93.23    7.48
  -4  -3  26   88.23    7.17
  -4   3  27    6.49    2.49
  -4  -3  27    1.09    1.39
  -4   3  28  321.50   14.61
  -4  -3  28  352.85   15.50
  -4   3  29   14.42    3.29
  -4  -3  29   15.27    3.27
  -4   3  30   56.73    6.10
  -4  -3  30   55.59    6.26
  -4   3  31    0.07    1.35
  -4  -3  31   -4.17    2.25
  -4   3  32    2.55    1.94
  -4  -3  32   -4.09    2.65
  -4   3  33    2.22    1.98
  -4  -3  33    0.90    1.18
  -4   3  34    0.86    1.73
  -4  -3  34    1.00    1.66
  -4   3  35   19.25    3.86
  -4  -3  35    9.45    3.09
  -4  -3  36   13.51    3.45
  -4   3  36   15.53    3.44
  -4   3  37    1.75    2.26
  -4  -3  37    0.83    1.23
  -4   3  38    2.85    2.24
  -4  -4   0 1284.80   25.03
   4   4   0 1196.47   25.50
  -4   4   0 1224.70   21.16
  -4  -4  -1  657.99   15.80
   4  -4  -1  661.24   12.99
   4   4  -1  639.62   16.30
  -4  -4   1  631.45   15.62
  -4   4   1  649.09   12.65
  -4   4  -1  666.44   12.52
  -4  -4  -2   49.25    3.57
  -4   4  -2   46.33    2.26
   4  -4  -2   49.74    2.62
  -4  -4   2   48.67    3.53
  -4   4   2   48.46    2.50
   4   4  -2   45.53    3.65
  -4  -4  -3  117.02    5.57
  -4  -4   3  116.93    5.57
   4   4  -3  108.25    5.82
  -4   4  -3  118.85    3.82
  -4   4   3  105.08    4.02
   4  -4  -3  116.48    4.37
  -4  -4   4   33.74    2.88
  -4   4   4   34.50    2.32
  -4  -4  -4   35.63    3.06
   4  -4  -4   38.76    2.53
  -4   4  -4   35.78    2.00
  -4  -4  -5  183.42    7.28
  -4   4  -5  184.85    5.24
  -4   4   5  183.01    5.96
   4  -4  -5  186.86    6.22
  -4  -4   5  189.33    7.36
  -4   4  -6    5.18    0.88
  -4  -4   6    3.18    0.93
  -4   4   6    5.60    1.06
   4  -4  -6    4.19    0.94
  -4  -4  -6    4.93    1.18
  -4  -4   7   50.53    3.73
  -4   4  -7   50.60    2.68
   4  -4  -7   51.70    3.24
  -4   4   7   49.52    3.19
  -4  -4  -7   51.46    3.81
  -4  -4  -8   30.89    2.94
  -4   4   8   30.38    2.56
   4  -4  -8   28.69    2.51
  -4  -4   8   34.73    3.10
   4  -4  -9   31.33    2.76
  -4   4   9   28.02    2.58
  -4   4  -9   34.81    2.46
  -4  -4   9   33.87    3.10
  -4   4  10   36.32    3.05
   4  -4 -10   34.82    3.00
  -4  -4  10   31.12    3.10
  -4   4 -10   37.85    2.73
  -4   4  11  161.64    6.94
  -4   4 -11  161.94    6.23
  -4  -4  11  148.37    6.96
   4  -4 -11  148.94    6.71
  -4   4 -12  159.17    6.57
  -4   4  12  157.19    7.18
  -4  -4  12  166.62    7.53
   4  -4 -12  140.15    6.86
  -4   4 -13  273.04    9.38
  -4   4  13  268.11   10.07
  -4  -4  13  279.79   10.22
  -4   4 -14  446.93   13.30
  -4   4  14  447.37   14.00
  -4  -4  14  458.18   13.86
  -4   4 -15  898.61   21.88
  -4   4  15  921.59   22.71
  -4  -4  15  928.71   22.16
  -4   4 -16   32.02    3.59
  -4   4  16   37.95    3.99
  -4  -4  16   38.06    3.71
  -4   4  17  100.83    6.66
  -4  -4  17  116.89    6.72
  -4   4  18   19.98    3.14
  -4  -4  18   22.53    3.00
  -4   4  19  121.96    7.74
  -4  -4  19  124.51    7.37
  -4   4  20   10.53    2.48
  -4  -4  20   11.10    2.33
  -4   4  21   39.28    4.64
  -4  -4  21   38.27    4.24
  -4   4  22   73.35    6.31
  -4  -4  22   78.80    6.08
  -4   4  23   11.32    2.70
  -4  -4  23   16.17    2.94
  -4   4  24   93.74    7.33
  -4  -4  24  100.70    7.29
  -4   4  25   80.40    6.78
  -4  -4  25   78.31    6.68
  -4   4  26  338.89   14.49
  -4  -4  26  332.57   14.37
  -4  -4  27   65.66    6.21
  -4   4  27   70.10    6.51
  -4  -4  28   30.38    4.50
  -4   4  28   36.87    4.96
  -4   4  29  292.85   14.06
  -4  -4  29  267.57   13.76
  -4  -4  30   56.20    6.30
  -4   4  30   52.58    5.88
  -4   4  31   57.61    6.03
  -4  -4  31   54.04    6.22
  -4   4  32   -0.45    1.21
  -4  -4  32   -1.71    2.21
  -4   4  33   15.59    3.26
  -4  -4  33    8.44    2.42
  -4   4  34    9.66    2.93
  -4  -4  34   10.31    2.72
  -4   4  35   13.63    3.26
  -4  -4  35    7.95    2.86
  -4   4  36    4.85    1.92
  -4  -4  36    3.23    2.10
  -4   4  37    4.39    2.61
  -4  -4  37   -1.29    1.70
  -4   4  38  105.04    9.13
  -4   5   0 1139.83   19.36
  -4  -5   0 1168.00   24.07
  -4  -5  -1  427.45   12.17
   4  -5  -1  414.95    8.82
  -4   5   1  421.95    8.70
  -4  -5   1  419.93   12.11
  -4   5  -1  416.20    8.33
  -4   5  -2   58.71    2.31
  -4  -5  -2   61.32    4.14
   4  -5  -2   63.81    2.76
  -4   5   2   64.06    2.73
  -4  -5   2   61.61    4.15
   4  -5  -3    0.25    0.36
  -4   5   3    0.77    0.59
  -4   5  -3    0.24    0.21
  -4  -5   3   -0.65    0.57
  -4  -5   4  122.11    5.90
  -4   5   4  132.18    4.63
   4  -5  -4  132.88    4.71
  -4  -5  -4  122.47    6.04
  -4   5  -4  128.07    3.78
  -4   5  -5   55.09    2.38
  -4  -5   5   56.52    3.97
  -4   5   5   54.72    3.04
   4  -5  -5   55.12    3.07
  -4  -5  -5   56.26    3.98
  -4  -5   6    3.54    1.12
  -4   5   6    2.65    0.81
   4  -5  -6    3.89    0.82
  -4  -5  -6    2.89    0.84
  -4   5  -6    4.20    0.71
   4  -5  -7   16.80    1.82
  -4  -5   7   14.94    2.17
  -4   5   7   16.32    1.85
  -4  -5  -7   14.99    2.10
  -4   5  -7   16.58    1.40
  -4   5  -7   18.90    1.55
  -4   5  -8    0.91    0.53
  -4  -5   8    1.09    0.86
  -4   5   8    1.79    0.64
   4  -5  -8    0.47    0.61
  -4  -5  -8    1.59    0.93
  -4   5  -9    4.40    0.96
  -4  -5   9    3.17    1.08
   4  -5  -9    2.97    0.90
  -4   5   9    4.45    1.03
  -4  -5  10   14.90    2.12
   4  -5 -10   17.09    2.05
  -4   5  10   13.53    1.87
  -4   5 -10   18.89    1.94
  -4  -5  11   14.41    2.24
   4  -5 -11   11.07    1.80
  -4   5 -11   14.75    1.87
  -4   5  11   13.32    2.00
  -4   5  12  115.04    6.22
  -4  -5  12  107.77    6.04
   4  -5 -12  101.28    5.67
  -4   5 -12  108.63    5.53
  -4   5 -13  220.94    8.59
  -4   5  13  208.48    9.01
  -4  -5  13  213.73    9.00
  -4   5 -14  502.66   14.66
  -4   5  14  525.46   15.63
  -4  -5  14  509.48   15.03
  -4   5  15  539.87   16.39
  -4   5 -15  517.04   15.40
  -4  -5  15  544.30   15.83
  -4   5 -16   92.26    6.02
  -4  -5  16   96.28    6.02
  -4   5  16  105.06    6.72
  -4   5  17   20.70    3.14
  -4  -5  17   18.13    2.60
  -4   5  18  153.00    8.57
  -4  -5  18  170.89    8.51
  -4   5  19   91.06    6.53
  -4  -5  19   82.34    5.98
  -4   5  20   10.38    2.31
  -4  -5  20   10.84    2.35
  -4   5  21    7.88    2.32
  -4  -5  21   11.81    2.51
  -4   5  22    2.86    1.56
  -4  -5  22    1.91    0.97
  -4  -5  23    5.09    1.91
  -4   5  23    1.29    0.96
  -4   5  24   96.61    7.24
  -4  -5  24   85.14    6.76
  -4   5  25   42.17    5.08
  -4  -5  25   35.61    4.47
  -4   5  26  173.83   10.17
  -4  -5  26  164.13    9.83
  -4   5  27   30.55    4.48
  -4  -5  27   25.31    3.93
  -4  -5  28   53.02    5.90
  -4   5  28   65.42    6.39
  -4  -5  29   82.76    7.40
  -4   5  29   92.47    7.46
  -4   5  30   15.00    3.09
  -4  -5  30   10.31    2.81
  -4   5  31   16.58    3.35
  -4  -5  31   10.80    2.78
  -4   5  32   12.56    3.16
  -4  -5  32   13.34    2.98
  -4   5  33    9.14    2.73
  -4  -5  33    5.76    2.42
  -4   5  34   21.27    3.88
  -4  -5  34   18.22    3.80
  -4  -5  35   -1.59    1.70
  -4   5  35    2.62    1.97
  -4  -5  36    5.66    2.06
  -4   5  36    4.91    2.36
  -4  -5  37   -2.98    1.35
  -4   5  37    5.94    2.63
  -4   6   0 1382.80   22.38
  -4  -6   0 1386.52   28.09
  -4  -6  -1  820.12   18.64
  -4   6   1  782.81   13.77
   4  -6  -1  754.40   13.51
  -4   6  -1  741.99   12.88
  -4  -6   1  793.90   18.41
  -4  -6  -2  502.17   13.70
  -4   6   2  494.84    9.94
   4  -6  -2  491.17    9.53
  -4  -6   2  485.32   13.47
  -4   6  -2  441.96    8.41
  -4   6   3  261.21    6.84
  -4  -6  -3  266.59    9.33
  -4  -6   3  260.99    9.22
   4  -6  -3  258.29    6.45
  -4   6  -3  247.96    5.13
  -4   6   4    3.64    0.69
  -4  -6  -4    5.17    1.13
  -4   6  -4    3.02    0.43
  -4  -6   4    4.42    1.20
  -4   6  -4    5.51    0.61
   4  -6  -4    4.27    0.79
  -4   6   5   12.17    1.44
  -4  -6   5   13.39    1.96
   4  -6  -5   12.91    1.37
  -4   6  -5   11.94    0.95
  -4  -6  -5   12.37    1.95
  -4   6  -5   13.79    1.08
  -4   6  -6   26.70    1.70
  -4   6   6   23.40    2.17
   4  -6  -6   28.83    2.16
  -4  -6   6   27.08    2.82
  -4   6  -6   26.83    1.52
  -4  -6  -6   22.66    2.54
  -4   6  -7   13.15    1.33
  -4  -6  -7   11.34    1.94
  -4   6   7   10.38    1.48
   4  -6  -7   10.96    1.51
  -4  -6   7   11.49    1.91
  -4   6  -7   12.64    1.13
  -4  -6   8   28.84    3.04
  -4   6  -8   29.58    2.17
  -4   6   8   26.93    2.71
   4  -6  -8   27.36    2.34
  -4  -6  -8   25.02    2.82
   4  -6  -9    2.72    0.90
  -4  -6   9    1.12    0.61
  -4   6   9    2.27    0.96
  -4   6  -9    1.50    0.50
  -4  -6  -9    1.52    0.68
   4  -6 -10   15.34    1.99
  -4  -6  10   13.78    2.26
  -4   6  10   16.10    2.23
  -4   6 -10   14.10    1.72
   4  -6 -11    8.97    1.66
  -4  -6  11    8.17    1.74
  -4   6 -11    6.87    1.34
  -4   6  11    5.56    1.55
  -4   6  12  485.44   14.44
  -4   6 -12  472.58   13.03
   4  -6 -12  468.43   13.76
  -4  -6  12  503.54   14.53
  -4   6  13 1047.56   24.02
  -4   6 -13  965.28   21.94
  -4  -6  13  994.69   23.34
  -4   6  14  816.47   20.92
  -4   6 -14  795.72   19.45
  -4  -6  14  817.77   20.71
  -4   6  15  300.75   11.55
  -4   6 -15  295.73   10.76
  -4  -6  15  316.42   11.47
  -4   6  16  113.48    7.00
  -4   6 -16  116.40    6.60
  -4  -6  16  113.15    6.69
  -4   6 -17   61.63    4.92
  -4   6  17   55.86    4.87
  -4  -6  17   54.55    4.75
  -4   6  18   -0.40    0.77
  -4  -6  18    0.14    0.78
  -4  -6  19    7.19    1.77
  -4   6  19    7.81    2.08
  -4   6  20    1.40    1.28
  -4  -6  20    2.24    1.47
  -4   6  21   31.39    4.01
  -4  -6  21   27.15    3.65
  -4   6  22    9.11    2.14
  -4  -6  22    9.47    2.40
  -4   6  23    8.89    2.57
  -4  -6  23    7.26    2.24
  -4   6  24    4.97    1.81
  -4  -6  24    2.39    1.39
  -4  -6  25   65.77    6.10
  -4   6  25   70.21    6.20
  -4  -6  26  174.83   10.25
  -4   6  26  182.04   10.34
  -4  -6  27  344.00   15.10
  -4   6  27  382.62   15.33
  -4  -6  28  222.06   12.14
  -4   6  28  231.92   12.03
  -4   6  29    1.03    1.31
  -4  -6  29   -0.30    1.12
  -4   6  30   33.87    4.78
  -4  -6  30   27.49    4.37
  -4   6  31    3.06    2.11
  -4  -6  31   -1.80    1.86
  -4   6  32    1.35    1.58
  -4  -6  32    0.39    1.36
  -4  -6  33   19.57    4.12
  -4   6  33   25.25    4.28
  -4  -6  34    2.19    1.40
  -4   6  34    4.50    2.01
  -4  -6  35   -0.60    1.65
  -4  -6  36    2.70    2.36
  -4  -7   0    8.74    1.88
  -4  -7  -1  572.47   15.07
  -4  -7   1  588.91   15.06
  -4   7   2  118.53    3.83
   4  -7  -2  125.66    3.49
  -4  -7  -2  133.64    6.63
  -4  -7   2  135.61    6.55
  -4   7   3   29.85    1.93
  -4  -7  -3   34.45    3.32
  -4  -7   3   36.31    3.38
   4  -7  -3   31.95    1.81
   4  -7  -4   62.99    2.76
  -4  -7   4   58.02    4.28
  -4  -7  -4   59.21    4.33
  -4   7   4   54.48    2.90
  -4  -7   5  135.12    6.62
   4  -7  -5  134.67    4.54
  -4   7   5  124.25    4.94
  -4  -7  -5  130.00    6.58
  -4   7  -6   99.00    2.73
  -4   7   6   99.05    4.55
   4  -7  -6  107.84    4.21
  -4  -7  -6  110.33    6.02
  -4  -7   6   98.52    5.64
  -4   7  -6   91.43    2.95
  -4   7  -7    9.29    0.84
  -4   7   7    9.27    1.40
   4  -7  -7    8.64    1.25
  -4   7  -7    9.21    0.94
  -4  -7   7    8.24    1.74
  -4  -7  -7    8.83    1.77
   4  -7  -8    6.01    1.11
  -4   7   8    8.20    1.45
  -4  -7   8    7.58    1.60
  -4   7  -8    5.92    0.87
  -4  -7  -8    7.16    1.60
  -4   7   9   63.62    4.12
  -4  -7  -9   62.79    4.63
  -4   7  -9   58.81    3.05
  -4  -7   9   65.49    4.72
   4  -7  -9   61.02    3.72
  -4   7  10    4.33    1.14
  -4  -7  10    3.25    1.07
  -4   7 -10    3.76    0.83
   4  -7 -10    2.76    0.94
  -4   7  11  115.57    6.01
  -4   7 -11  113.20    4.97
   4  -7 -11  115.23    5.88
  -4  -7  11  110.39    6.32
  -4   7  12  178.66    7.89
  -4   7 -12  174.59    6.74
   4  -7 -12  176.43    7.86
  -4  -7  12  187.94    8.42
  -4   7  13  436.91   13.41
  -4   7 -13  413.52   11.81
   4  -7 -13  414.40   13.43
  -4  -7  13  418.81   13.57
  -4   7  14   79.78    5.41
  -4   7 -14   67.74    4.43
  -4  -7  14   78.06    5.43
  -4   7  15  227.12    9.53
  -4   7 -15  192.91    8.17
  -4  -7  15  221.41    9.65
  -4   7  16   47.46    4.38
  -4   7 -16   34.17    3.42
  -4  -7  16   42.64    4.08
  -4   7  17   10.78    2.25
  -4   7 -17    9.06    1.95
  -4  -7  17    6.93    1.67
  -4  -7  18   65.57    5.32
  -4   7  18   71.08    5.64
  -4  -7  19   97.01    6.56
  -4   7  19   97.38    6.73
  -4  -7  20   39.11    4.32
  -4   7  20   43.44    4.45
  -4   7  21    7.76    2.03
  -4  -7  21    7.38    1.93
  -4  -7  22   40.19    4.61
  -4   7  22   38.24    4.31
  -4   7  23    6.90    1.92
  -4  -7  23   10.19    2.32
  -4   7  24    2.11    1.30
  -4  -7  24    4.84    2.23
  -4  -7  25   86.73    6.99
  -4   7  25   87.12    6.93
  -4   7  26    7.73    2.64
  -4  -7  26    7.92    2.67
  -4  -7  27  184.74   10.75
  -4   7  27  189.76   10.72
  -4  -7  28   80.13    7.13
  -4   7  28   96.94    7.69
  -4  -7  29   45.49    5.56
  -4   7  29   48.38    5.43
  -4  -7  30    8.15    2.56
  -4   7  30    7.31    2.49
  -4  -7  31   22.71    3.99
  -4   7  31   19.09    3.50
  -4  -7  32    0.84    1.22
  -4  -7  33   25.21    4.43
  -4  -7  34   -3.51    2.81
  -4  -7  35    4.29    1.84
  -4  -7  36   16.11    3.91
  -4  -8   0 1785.86   35.21
  -4  -8  -1  607.71   16.43
  -4  -8   1  603.24   16.30
  -4  -8  -2  249.97    9.42
   4  -8  -2  213.94    4.62
  -4  -8   2  239.24    9.21
  -4  -8  -3   11.53    2.01
   4  -8  -3    9.38    0.87
  -4  -8   3    8.82    1.66
   4  -8  -4   97.69    3.42
  -4  -8   4   99.27    5.69
  -4  -8  -4   97.78    5.78
   4  -8  -5    0.06    0.29
  -4  -8   5    0.52    0.77
  -4  -8  -5   -0.58    0.91
  -4   8   5    1.68    0.68
  -4  -8  -6   73.20    4.98
  -4  -8   6   68.92    4.81
  -4   8   6   77.95    3.64
   4  -8  -6   69.93    3.28
   4  -8  -7    6.01    1.04
  -4   8   7    4.60    1.08
  -4  -8   7    5.41    1.37
  -4  -8  -7    3.81    1.28
  -4  -8   8  166.65    7.74
  -4   8  -8  160.03    4.22
  -4  -8  -8  162.04    7.70
   4  -8  -8  169.48    6.04
  -4   8   8  160.66    6.16
  -4   8   9   10.58    1.67
  -4  -8  -9    9.80    1.89
  -4  -8   9    9.98    1.97
  -4   8  -9   10.12    1.09
   4  -8  -9   10.64    1.59
  -4  -8 -10   37.88    3.72
  -4   8 -10   46.51    2.58
   4  -8 -10   43.47    3.30
  -4   8  10   40.04    3.21
  -4  -8  10   40.36    3.83
  -4  -8  11   20.25    2.76
  -4   8 -11   26.56    2.14
   4  -8 -11   20.14    2.42
  -4   8  11   23.48    2.54
  -4   8 -12  191.64    6.63
   4  -8 -12  200.06    8.43
  -4  -8  12  199.58    8.80
  -4   8  12  196.38    8.00
  -4   8 -13  896.84   19.51
   4  -8 -13  957.36   22.87
  -4  -8  13  995.09   23.32
  -4   8  13  924.68   21.57
  -4   8 -14  783.36   18.35
  -4  -8  14  873.47   21.57
  -4   8  14  835.78   20.27
  -4   8  15  134.85    7.07
  -4   8 -15  122.62    6.11
  -4  -8  15  136.84    7.57
  -4   8  16    9.44    1.95
  -4   8 -16    9.62    1.81
  -4  -8  16    8.06    2.01
  -4   8  17    2.80    1.21
  -4   8 -17    2.69    1.00
  -4  -8  17    2.06    1.29
  -4   8  18   27.39    3.48
  -4   8 -18   17.47    2.54
  -4  -8  18   25.84    3.40
  -4  -8  19   54.56    4.94
  -4   8  19   54.22    4.83
  -4   8  20    1.82    1.01
  -4  -8  20    0.51    0.81
  -4   8  21   29.12    3.78
  -4  -8  21   29.00    3.84
  -4  -8  22  130.35    8.18
  -4   8  22  135.08    8.25
  -4   8  23    4.26    1.45
  -4  -8  23    3.32    2.00
  -4   8  24    1.20    1.01
  -4  -8  24    1.47    1.35
  -4  -8  25   34.34    4.51
  -4   8  25   35.58    4.49
  -4  -8  26  146.87    9.35
  -4   8  26  157.42    9.44
  -4   8  27  503.94   17.94
  -4  -8  27  461.73   17.77
  -4  -8  28  161.99   10.28
  -4  -8  29   21.23    3.84
  -4  -8  30    4.43    2.19
  -4  -8  31    1.03    1.33
  -4  -8  32    0.17    1.27
  -4  -8  33   18.68    3.98
  -4  -8  34    3.85    2.11
  -4  -8  35   -0.28    1.43
  -4  -8  36   23.90    4.61
  -4  -9   0   13.47    2.41
  -4  -9  -1  980.34   22.98
  -4  -9   1  993.08   23.03
  -4  -9   2   10.63    2.03
  -4  -9  -2   10.88    2.02
  -4  -9  -3  191.73    8.38
  -4  -9   3  184.77    8.21
   4  -9  -3  172.49    4.16
  -4  -9  -4    1.05    1.06
   4  -9  -4    1.14    0.38
  -4  -9   4    1.11    0.64
   4  -9  -5    9.35    1.05
  -4  -9  -5   14.89    2.30
  -4  -9   5    9.50    1.87
  -4  -9   6   44.31    3.87
   4  -9  -6   44.31    2.45
  -4  -9  -6   45.97    4.03
   4  -9  -7   10.88    1.30
  -4  -9   7   11.09    2.03
  -4  -9  -7   12.45    2.25
  -4  -9   8   27.54    3.15
  -4  -9  -8   26.78    3.19
   4  -9  -8   28.74    2.32
  -4   9  -9    0.39    0.31
  -4  -9  -9    0.59    0.69
  -4  -9   9    1.60    0.91
   4  -9  -9    0.38    0.60
  -4  -9  10   18.80    2.72
  -4   9 -10   20.53    1.52
   4  -9 -10   22.00    2.34
  -4  -9 -10   24.81    3.10
   4  -9 -11   79.59    4.86
  -4   9 -11   68.05    3.20
  -4  -9  11   67.60    5.09
  -4   9 -12  217.84    6.69
   4  -9 -12  220.63    8.98
  -4  -9  12  216.82    9.54
  -4   9  13  518.81   14.41
  -4   9 -13  513.41   12.30
   4  -9 -13  509.53   15.50
  -4  -9  13  508.38   15.59
  -4  -9  14   22.64    3.12
  -4   9 -14   26.40    2.52
  -4   9  14   28.26    3.18
  -4   9 -15  426.16   12.09
  -4  -9  15  479.27   15.12
  -4   9  15  441.60   13.63
  -4   9 -16   73.24    4.65
  -4   9  16   86.92    5.65
  -4  -9  16   69.99    5.52
  -4   9 -17  100.90    5.78
  -4  -9  17  120.57    7.36
  -4   9  17  115.51    6.76
  -4   9 -18    2.08    1.08
  -4  -9  18    0.89    1.18
  -4   9  18    0.59    0.97
  -4  -9  19    2.50    1.17
  -4  -9  20    4.50    1.90
  -4  -9  21   45.07    4.75
  -4  -9  22    6.21    2.07
  -4  -9  23   10.81    2.62
  -4  -9  24   -1.60    1.52
  -4  -9  25    9.20    2.30
  -4  -9  26   80.39    7.06
  -4  -9  27  174.23   10.60
  -4  -9  28   37.43    5.20
  -4  -9  29  244.79   13.15
  -4  -9  30   71.13    7.13
  -4  -9  31   31.18    4.71
  -4  -9  32    3.87    1.73
  -4  -9  33    1.28    1.25
  -4  -9  34   33.68    5.26
  -4  -9  35   32.19    4.97
  -4 -10   0  538.27   15.84
  -4 -10  -1  372.51   12.72
  -4 -10   1  374.32   12.61
  -4 -10  -2   58.71    4.66
  -4 -10   2   44.59    4.13
  -4 -10  -3   11.66    2.12
  -4 -10   3   10.16    2.05
  -4 -10  -4    1.47    0.90
   4 -10  -4    1.34    0.41
  -4 -10   4    1.05    0.93
  -4 -10   5  350.54   12.18
  -4 -10  -5  376.45   12.59
   4 -10  -5  343.19    7.80
   4 -10  -6    1.60    0.57
  -4 -10   6   -0.17    1.07
  -4 -10  -6    1.72    1.28
  -4 -10  -7    0.94    0.66
  -4 -10   7   -0.21    0.77
   4 -10  -7    1.31    0.46
  -4 -10   8    6.29    1.74
  -4 -10  -8    1.99    1.20
   4 -10  -8    3.18    0.77
  -4 -10   9  469.87   14.57
  -4  10  -9  434.12    8.08
  -4 -10  -9  464.22   14.66
   4 -10  -9  491.62   12.29
  -4 -10 -10    5.56    1.62
  -4 -10  10    3.83    1.15
  -4  10 -10    4.61    0.69
   4 -10 -10    6.37    1.42
  -4 -10  11   20.00    2.81
  -4 -10 -11   16.72    2.62
   4 -10 -11   18.05    2.34
  -4  10 -11   20.41    1.59
   4 -10 -12  363.94   12.18
  -4  10 -12  362.53    8.81
  -4 -10  12  341.42   12.54
   4 -10 -13  420.84   14.07
  -4  10 -13  425.87   10.46
  -4 -10  13  432.55   14.29
  -4  10 -14  347.05    9.66
  -4 -10  14  342.39   12.67
  -4  10 -15  196.23    7.30
  -4 -10  15  206.33    9.67
  -4  10 -16   15.61    2.09
  -4 -10  16   16.07    2.86
  -4  10 -17    0.80    0.73
  -4 -10  17    2.66    1.45
  -4  10 -18   -0.33    0.83
  -4 -10  18    3.23    1.62
  -4 -10  19   63.85    5.50
  -4  10 -19   50.95    4.41
  -4 -10  20   20.80    3.26
  -4 -10  21   31.38    4.07
  -4 -10  22   12.95    2.68
  -4 -10  23   69.55    6.19
  -4 -10  24    8.53    2.17
  -4 -10  25    1.97    1.68
  -4 -10  26  256.64   12.68
  -4 -10  27  121.63    8.74
  -4 -10  28   80.64    7.25
  -4 -10  29   63.09    6.61
  -4 -10  30   35.29    5.03
  -4 -10  31    7.87    2.66
  -4 -10  32    4.28    2.25
  -4 -10  33    1.27    1.54
  -4 -10  34    3.21    1.66
  -4 -10  35   40.07    5.83
  -4 -11   0  495.80   15.27
  -4 -11  -1   44.26    4.22
  -4 -11   1   47.21    4.21
  -4 -11  -2  126.09    7.11
  -4 -11   2  120.97    6.97
  -4 -11  -3    5.06    1.58
  -4 -11   3    0.73    1.03
   4 -11  -4   11.77    0.96
  -4 -11  -4   11.22    2.22
  -4 -11   4   13.33    2.37
   4 -11  -5    2.15    0.55
  -4 -11  -5    1.44    1.03
  -4 -11   5    3.28    1.52
  -4 -11   6   34.29    3.61
   4 -11  -6   32.00    2.04
  -4 -11  -6   31.29    3.62
  -4 -11  -7    1.37    1.17
  -4 -11   7    2.99    1.43
   4 -11  -7    2.42    0.69
  -4 -11   8    2.82    1.27
  -4 -11  -8    1.20    0.90
   4 -11  -8    3.87    1.03
  -4 -11   9   31.11    3.54
  -4 -11  -9   29.60    3.55
   4 -11  -9   29.66    2.66
  -4 -11  10  103.05    6.54
  -4  11 -10   90.19    2.89
   4 -11 -10  101.13    5.38
  -4 -11 -10   97.13    6.29
  -4 -11  11   15.26    2.51
  -4  11 -11   17.59    1.33
  -4 -11 -11   16.16    2.76
   4 -11 -11   14.47    2.29
  -4  11 -12   48.18    2.59
   4 -11 -12   51.39    4.39
  -4 -11 -12   55.61    4.87
  -4 -11  12   48.20    4.59
  -4 -11  13    3.05    1.41
  -4  11 -13    2.16    0.69
   4 -11 -13    2.71    1.41
  -4 -11  14  306.61   12.07
  -4  11 -14  296.36    8.48
  -4 -11  15  191.51    9.41
  -4  11 -15  184.71    6.77
  -4 -11  16  314.58   12.44
  -4  11 -16  306.30    9.63
  -4 -11  17   36.08    4.13
  -4  11 -17   31.80    3.03
  -4 -11  18    1.17    1.24
  -4 -11  19   43.55    4.69
  -4 -11  20    0.50    0.93
  -4 -11  21   35.65    4.31
  -4 -11  22    7.80    2.39
  -4 -11  23    5.64    2.12
  -4 -11  24   69.34    6.35
  -4 -11  25   26.36    4.07
  -4 -11  26   57.72    5.83
  -4 -11  27    5.99    2.20
  -4 -11  28   46.62    5.48
  -4 -11  29   77.39    7.27
  -4 -11  30  116.07    9.06
  -4 -11  31   48.54    6.05
  -4 -11  32    9.75    2.84
  -4 -11  33   29.86    4.98
  -4 -11  34    2.73    1.82
  -4 -12   0   11.69    2.24
  -4 -12  -1  149.69    7.94
  -4 -12   1  146.02    7.93
  -4 -12  -2   58.86    4.95
  -4 -12   2   59.72    5.04
  -4 -12  -3    2.07    1.18
  -4 -12   3    0.05    1.13
  -4 -12  -4   78.21    5.64
  -4 -12   4   77.20    5.58
   4 -12  -4   70.84    2.42
  -4 -12  -5   11.34    2.24
  -4 -12   5   15.15    2.60
   4 -12  -5   12.50    1.10
  -4 -12   6  342.57   12.38
   4 -12  -6  326.81    8.09
  -4 -12  -6  344.44   12.63
  -4 -12   7   21.39    2.97
   4 -12  -7   20.85    1.88
  -4 -12  -7   27.35    3.47
  -4 -12  -8  458.43   15.13
  -4 -12   8  432.00   14.65
   4 -12  -8  475.59   11.79
  -4 -12   9    6.00    1.82
   4 -12  -9    4.94    1.13
  -4 -12  -9    3.68    1.56
  -4 -12  10   45.10    4.33
   4 -12 -10   46.65    3.75
  -4 -12 -10   47.99    4.58
  -4 -12  11  113.38    7.00
   4 -12 -11  110.83    6.26
  -4  12 -11  111.71    3.51
  -4 -12 -11  113.50    7.05
  -4 -12 -12   53.55    4.95
  -4  12 -12   54.93    2.64
   4 -12 -12   52.27    4.56
  -4 -12  12   56.13    4.89
  -4 -12 -13   98.93    6.75
  -4  12 -13  102.04    4.04
   4 -12 -13   84.01    6.12
  -4 -12  13  100.75    6.65
  -4 -12  14   31.41    3.73
  -4  12 -14   36.23    2.50
  -4 -12  15   17.41    2.90
  -4 -12  16    7.78    2.03
  -4 -12  17   18.38    3.03
  -4 -12  18   70.94    5.85
  -4 -12  19   14.44    2.76
  -4 -12  20   18.85    3.22
  -4 -12  21   26.09    3.90
  -4 -12  22  177.28   10.07
  -4 -12  23    9.68    2.50
  -4 -12  24    2.11    1.61
  -4 -12  25  287.74   13.52
  -4 -12  26    0.25    1.51
  -4 -12  27   59.72    6.23
  -4 -12  28   22.52    3.84
  -4 -12  29    6.59    2.71
  -4 -12  30    0.05    1.26
  -4 -12  31   11.69    2.89
  -4 -12  32   25.84    4.68
  -4 -12  33    0.42    1.36
  -4 -13   0   66.04    5.38
  -4 -13   1   34.27    3.82
  -4 -13  -1   35.78    3.92
  -4 -13   2   -0.58    1.32
  -4 -13  -2    1.82    1.03
  -4 -13  -3    2.26    1.42
  -4 -13   3    0.75    0.90
   4 -13  -4   21.47    1.28
  -4 -13   4   27.88    3.46
   4 -13  -4   23.96    1.30
  -4 -13  -4   27.95    3.50
  -4 -13   5  124.06    7.30
  -4 -13  -5  127.23    7.45
   4 -13  -5  119.12    3.83
  -4 -13   6   34.92    3.85
  -4 -13  -6   33.09    3.76
   4 -13  -6   35.94    2.27
  -4 -13   7   25.51    3.31
   4 -13  -7   26.27    2.23
  -4 -13  -7   28.71    3.55
  -4 -13  -8    7.98    2.06
  -4 -13   8    7.14    1.62
   4 -13  -8    7.26    1.50
  -4 -13   9  118.92    7.28
  -4 -13  -9  125.30    7.52
   4 -13  -9  124.98    5.97
  -4 -13  10   -0.24    0.94
   4 -13 -10    0.94    0.94
  -4 -13  11    4.43    1.43
  -4  13 -11    8.42    0.81
  -4 -13 -11    7.27    1.99
   4 -13 -11    9.67    1.96
  -4 -13  12    3.76    1.45
  -4  13 -12    3.73    0.65
   4 -13 -12    5.31    1.70
  -4 -13 -12    3.37    1.16
  -4 -13  13    1.10    0.91
  -4 -13 -13    3.19    1.56
  -4 -13  14   31.71    3.91
  -4 -13 -14   38.74    4.24
  -4 -13  15   11.67    2.48
  -4 -13  16   -0.17    0.80
  -4 -13  17    1.15    1.32
  -4 -13  18    3.62    1.75
  -4 -13  19   33.16    4.24
  -4 -13  20   15.14    2.89
  -4 -13  21   53.16    5.47
  -4 -13  22   50.37    5.30
  -4 -13  23    9.92    2.53
  -4 -13  24    7.72    2.45
  -4 -13  25   44.87    5.36
  -4 -13  26   29.37    4.50
  -4 -13  27   -0.59    1.34
  -4 -13  28    3.96    1.98
  -4 -13  29   -0.18    1.42
  -4 -13  30    7.13    2.51
  -4 -13  31    9.73    2.90
  -4 -13  32    8.33    2.47
  -4 -13  33   14.17    3.63
  -4 -14   0   20.59    3.23
  -4 -14   1    3.89    1.72
  -4 -14  -1    1.03    0.88
  -4 -14   2   27.91    3.54
  -4 -14  -2   28.54    3.65
  -4 -14  -3   96.59    6.71
  -4 -14   3   94.56    6.54
   4 -14  -4   13.66    0.98
   4 -14  -4   13.19    0.99
  -4 -14   4   12.73    2.47
  -4 -14  -4   13.22    2.44
  -4 -14  -5   86.54    6.23
  -4 -14   5   94.02    6.45
   4 -14  -5   89.57    3.36
   4 -14  -5   84.02    3.14
  -4 -14  -6    0.63    1.05
  -4 -14   6   -0.66    1.12
   4 -14  -6    0.81    0.56
  -4 -14   7   10.92    2.13
  -4 -14  -7    9.11    1.96
   4 -14  -7   13.91    1.68
  -4 -14   8   44.46    4.47
   4 -14  -8   52.42    3.67
  -4 -14  -8   44.60    4.62
  -4 -14  -9   76.74    6.04
  -4 -14   9   88.77    6.25
   4 -14  -9   89.08    5.09
  -4 -14  10   83.59    6.28
  -4 -14 -10   83.23    6.30
   4 -14 -10   82.48    5.30
  -4 -14 -11   24.69    3.47
  -4 -14  11   18.37    2.93
   4 -14 -11   19.18    2.75
   4 -14 -12   72.80    5.55
  -4 -14 -12   91.35    6.63
  -4 -14  12   88.61    6.40
  -4 -14 -13   16.42    2.79
  -4 -14  13   12.07    2.45
  -4 -14 -14    5.02    1.68
  -4 -14  14    3.88    1.42
  -4 -14  15   29.87    3.84
  -4 -14 -15   26.39    3.60
  -4 -14  16    4.73    1.66
  -4 -14  17  110.75    7.54
  -4 -14  18  119.53    7.96
  -4 -14  19   34.92    4.39
  -4 -14  20   21.70    3.65
  -4 -14  21   53.28    5.46
  -4 -14  22   45.20    5.17
  -4 -14  23   33.83    4.49
  -4 -14  24  220.12   11.80
  -4 -14  25    3.71    2.09
  -4 -14  26  101.93    8.16
  -4 -14  27    0.36    1.21
  -4 -14  28   10.20    2.63
  -4 -14  29   48.24    5.87
  -4 -14  30   12.91    3.21
  -4 -14  31   54.56    6.35
  -4 -14  32   14.91    3.43
  -4 -15   0   11.16    2.64
  -4 -15   1  609.24   19.03
  -4 -15  -1  633.55   19.18
  -4 -15   2    1.09    0.88
  -4 -15  -2    1.84    1.36
  -4 -15  -3    5.16    1.76
  -4 -15   3    1.42    0.89
   4 -15  -4   26.00    1.47
   4 -15  -4   29.60    1.55
  -4 -15   4   23.73    3.33
  -4 -15  -4   33.24    4.07
  -4 -15  -5   42.93    4.49
   4 -15  -5   39.18    2.27
  -4 -15   5   35.34    4.09
   4 -15  -5   42.69    2.17
  -4 -15  -6    1.98    0.96
   4 -15  -6    2.61    0.89
  -4 -15   6   -1.13    1.44
   4 -15  -6    1.66    0.57
   4 -15  -7   19.45    2.10
  -4 -15  -7   21.00    3.28
  -4 -15   7   18.47    2.87
  -4 -15   8   -0.01    1.20
   4 -15  -8    0.34    0.64
  -4 -15  -8    1.90    1.37
  -4 -15  -9    1.82    0.78
  -4 -15   9    3.55    1.51
  -4 -15  10   10.02    2.34
  -4 -15 -10   11.46    2.39
  -4 -15  11    3.46    1.55
  -4 -15 -11    3.89    1.68
  -4 -15 -12   22.38    3.48
  -4 -15  12   18.61    3.01
  -4 -15 -13  163.36    9.29
  -4 -15  13  161.06    8.99
  -4 -15  14    1.65    1.46
  -4 -15 -14    4.29    1.96
  -4 -15 -15  328.34   13.64
  -4 -15  15  327.42   13.47
  -4 -15  16    0.46    1.36
  -4 -15 -16    0.49    1.22
  -4 -15  17    1.84    1.23
  -4 -15  18   13.55    3.00
  -4 -15  19   53.69    5.43
  -4 -15  20   17.89    3.18
  -4 -15  21   28.40    4.16
  -4 -15  22    1.63    1.33
  -4 -15  23   19.39    3.63
  -4 -15  24   15.04    3.35
  -4 -15  25   60.67    6.33
  -4 -15  26   12.30    3.04
  -4 -15  27   36.65    5.27
  -4 -15  28    1.87    1.51
  -4 -15  29   50.85    6.14
  -4 -15  30   -0.36    1.11
  -4 -15  31   21.35    3.91
  -4 -16   0   74.00    6.18
  -4 -16  -1    8.51    2.02
  -4 -16   1    6.96    1.99
  -4 -16  -2  410.27   15.23
  -4 -16   2  418.47   15.33
  -4 -16  -3    3.18    1.49
  -4 -16   3    2.60    1.14
  -4 -16  -4   75.43    6.16
  -4 -16   4   64.80    5.70
   4 -16  -4   64.71    2.50
  -4 -16  -5   41.88    4.57
   4 -16  -5   36.66    2.05
  -4 -16   5   35.87    4.17
  -4 -16  -6   11.54    2.44
   4 -16  -6    9.51    1.18
  -4 -16   6   10.08    2.34
  -4 -16  -7   34.58    4.08
  -4 -16   7   31.56    3.92
  -4 -16   8   -0.89    1.75
  -4 -16  -8    1.52    0.88
  -4 -16   9    1.13    1.07
  -4 -16  -9    5.55    1.96
  -4 -16 -10   24.91    3.47
  -4 -16  10   23.26    3.38
  -4 -16  11  100.80    7.18
  -4 -16 -11   91.09    6.84
  -4 -16  12  128.57    8.14
  -4 -16 -12  122.64    8.05
  -4 -16 -13   21.27    3.42
  -4 -16  13   25.70    3.65
  -4 -16 -14   57.35    5.54
  -4 -16  14   63.68    5.77
  -4 -16 -15    2.76    2.11
  -4 -16  15   -0.17    0.87
  -4 -16 -16  185.24   10.43
  -4 -16  16  206.66   10.62
  -4 -16 -17   20.55    3.42
  -4 -16  17   22.42    3.43
  -4 -16  18   49.93    5.29
  -4 -16  19    3.96    1.64
  -4 -16  20    0.51    0.96
  -4 -16  21   71.71    6.55
  -4 -16  22   36.11    4.77
  -4 -16  23    4.71    1.84
  -4 -16  24    6.93    2.38
  -4 -16  25  173.95   10.74
  -4 -16  26   17.89    3.76
  -4 -16  27    9.87    2.78
  -4 -16  28   68.73    7.01
  -4 -16  29    9.75    2.90
  -4 -16  30  101.91    8.83
  -4 -17   0  442.45   16.31
  -4 -17   1   94.55    7.12
  -4 -17  -1   91.16    7.03
  -4 -17  -2   80.94    6.53
  -4 -17   2   73.52    6.22
  -4 -17  -3   57.19    5.44
  -4 -17   3   54.03    5.22
  -4 -17  -4   42.16    4.73
  -4 -17   4   47.72    4.96
   4 -17  -5   11.52    1.20
  -4 -17   5   13.16    2.68
  -4 -17  -5    8.25    2.30
  -4 -17  -6   17.95    3.11
   4 -17  -6   15.50    1.53
  -4 -17   6   14.28    2.80
  -4 -17  -7   16.17    2.99
   4 -17  -7   18.84    1.76
  -4 -17   7   14.06    2.58
  -4 -17  -8   33.71    4.18
  -4 -17   8   31.80    4.06
  -4 -17   9   15.78    3.06
  -4 -17  -9   19.62    3.15
  -4 -17  10   15.51    2.98
  -4 -17 -10   12.05    2.61
  -4 -17  11   35.98    4.32
  -4 -17 -11   33.80    4.32
  -4 -17  12   82.78    6.59
  -4 -17 -12   62.60    5.86
  -4 -17 -13  186.47   10.24
  -4 -17  13  194.74   10.35
  -4 -17 -14  311.95   13.76
  -4 -17  14  348.44   14.15
  -4 -17  15    8.32    2.35
  -4 -17 -15    7.55    2.50
  -4 -17  16   81.04    6.62
  -4 -17 -16   67.46    6.31
  -4 -17 -17    1.20    1.32
  -4 -17  17    3.28    1.30
  -4 -17 -18   20.08    3.38
  -4 -17  18   24.02    3.64
  -4 -17  19   -1.81    1.84
  -4 -17  20    2.03    1.60
  -4 -17  21   33.79    4.51
  -4 -17  22   12.32    2.86
  -4 -17  23    6.39    2.44
  -4 -17  24    1.36    1.61
  -4 -17  25    5.00    2.05
  -4 -17  26   33.50    4.81
  -4 -17  27   88.63    8.01
  -4 -17  28   70.48    7.26
  -4 -17  29   11.95    3.09
  -4 -18   0  125.49    8.31
  -4 -18   1  134.35    8.64
  -4 -18  -1  139.11    8.81
  -4 -18  -2   15.02    3.06
  -4 -18   2   14.57    2.83
  -4 -18  -3  282.99   12.99
  -4 -18   3  296.39   13.13
  -4 -18  -4   13.91    3.06
  -4 -18   4   13.90    2.86
  -4 -18   5    5.86    1.86
  -4 -18  -5    4.19    1.61
  -4 -18   6    1.04    1.04
  -4 -18  -6    1.23    1.29
  -4 -18  -7    3.68    1.87
  -4 -18   7    2.25    1.55
  -4 -18  -8   14.28    2.94
  -4 -18   8   18.26    2.94
  -4 -18   9    2.47    1.07
  -4 -18  -9    7.05    2.12
  -4 -18  10   14.18    2.90
  -4 -18 -10   11.69    2.63
  -4 -18  11  161.06    9.55
  -4 -18 -11  158.64    9.53
  -4 -18  12  127.54    8.40
  -4 -18 -12  123.29    8.46
  -4 -18 -13   87.47    7.18
  -4 -18  13   96.92    7.27
  -4 -18  14   37.44    4.64
  -4 -18 -14   39.46    4.87
  -4 -18 -15  236.62   12.16
  -4 -18  15  258.67   12.36
  -4 -18 -16   33.39    4.48
  -4 -18  16   44.91    5.16
  -4 -18  17  174.04   10.11
  -4 -18 -17  171.30   10.34
  -4 -18 -18    4.18    1.52
  -4 -18  18    9.58    2.74
  -4 -18 -19    3.80    1.61
  -4 -18  19    4.35    1.96
  -4 -18  20   33.96    4.60
  -4 -18 -20   26.33    4.25
  -4 -18  21    2.59    1.43
  -4 -18  22    5.44    2.16
  -4 -18  23    8.15    2.60
  -4 -18  24    1.84    1.80
  -4 -18  25   21.53    3.96
  -4 -18  26   75.53    7.34
  -4 -18  27   23.31    4.36
  -4 -18  28    9.96    3.45
  -4 -19   0  143.20    9.26
  -4 -19   1    1.60    1.69
  -4 -19  -1    1.04    1.07
  -4 -19   2  107.73    7.81
  -4 -19  -2  112.32    8.05
  -4 -19  -3    1.84    1.33
  -4 -19   3    1.29    1.26
  -4 -19  -4    2.68    1.51
  -4 -19   4    2.36    1.69
  -4 -19  -5   45.05    5.29
  -4 -19   5   34.75    4.47
  -4 -19  -6   78.50    6.74
  -4 -19   6   76.63    6.63
  -4 -19   7   -1.27    1.66
  -4 -19  -7   -0.63    1.22
  -4 -19  -8   16.89    3.16
  -4 -19   8   17.75    3.18
  -4 -19   9   85.50    6.87
  -4 -19  -9   71.86    6.47
  -4 -19  10   -0.68    1.29
  -4 -19 -10    2.35    1.64
  -4 -19  11   -0.36    1.03
  -4 -19 -11    1.24    1.28
  -4 -19  12  147.83    9.21
  -4 -19 -12  132.25    8.91
  -4 -19  13   10.76    2.70
  -4 -19 -13    9.01    2.64
  -4 -19 -14  111.58    8.27
  -4 -19  14  121.68    8.57
  -4 -19  15   27.43    4.06
  -4 -19 -15   25.66    4.09
  -4 -19 -16   16.43    3.23
  -4 -19  16   13.68    2.77
  -4 -19 -17   17.54    3.35
  -4 -19  17   15.76    3.22
  -4 -19 -18    7.37    2.46
  -4 -19  18    4.17    1.77
  -4 -19 -19    0.79    1.26
  -4 -19  19    0.76    0.98
  -4 -19 -20   33.07    4.67
  -4 -19  20   28.67    4.24
  -4 -19 -21    0.07    1.17
  -4 -19  21    4.62    1.98
  -4 -19 -22    2.25    1.30
  -4 -19  22    2.92    1.79
  -4 -19  23   15.97    3.47
  -4 -19  24    7.27    2.42
  -4 -19  25    7.47    2.72
  -4 -19  26   52.12    6.13
  -4 -19  27   -1.53    1.90
  -4 -20   0  313.10   14.17
  -4 -20   1  103.75    8.02
  -4 -20  -1  110.03    8.18
  -4 -20   2  190.56   10.79
  -4 -20  -2  174.74   10.43
  -4 -20  -3   11.77    2.81
  -4 -20   3   17.08    3.16
  -4 -20  -4    0.88    1.22
  -4 -20   4   -2.19    1.84
  -4 -20  -5   17.62    3.39
  -4 -20   5   18.89    3.33
  -4 -20   6    3.12    1.42
  -4 -20  -6    2.75    1.43
  -4 -20   7   -2.86    1.69
  -4 -20  -7    0.66    1.15
  -4 -20  -8    4.15    1.46
  -4 -20   8    3.70    2.11
  -4 -20   9   72.98    6.51
  -4 -20  -9   57.11    5.82
  -4 -20  10   15.92    3.12
  -4 -20 -10   17.33    3.17
  -4 -20  11    2.65    1.31
  -4 -20 -11    1.18    1.05
  -4 -20  12   78.13    6.86
  -4 -20 -12   78.90    7.05
  -4 -20 -13  248.53   12.74
  -4 -20  13  254.21   12.55
  -4 -20 -14  162.76   10.25
  -4 -20  14  169.77   10.21
  -4 -20  15   18.87    3.60
  -4 -20 -15   13.76    3.31
  -4 -20 -16  120.08    8.83
  -4 -20  16  139.01    9.20
  -4 -20 -17   33.50    4.71
  -4 -20  17   24.11    4.06
  -4 -20 -18    0.77    1.21
  -4 -20  18   -0.37    1.76
  -4 -20 -19    7.54    2.28
  -4 -20  19    7.23    2.32
  -4 -20 -20   -1.71    1.65
  -4 -20  20   -0.69    1.61
  -4 -20 -21    0.80    1.48
  -4 -20  21    3.29    1.85
  -4 -20  22    1.95    1.52
  -4 -20 -22   -0.41    1.16
  -4 -20 -23   27.48    4.82
  -4 -20  23   28.87    4.51
  -4 -20 -24    7.31    2.52
  -4 -20  24    9.07    2.64
  -4 -20  25    4.19    2.18
  -4 -20  26   50.81    6.17
  -4 -21   0  320.35   14.69
  -4 -21  -1   16.76    3.48
  -4 -21   1   20.38    3.65
  -4 -21   2  124.17    8.90
  -4 -21  -2  127.75    9.04
  -4 -21  -3   13.68    3.07
  -4 -21   3   14.20    2.82
  -4 -21  -4   11.96    2.45
  -4 -21   4   11.63    2.74
  -4 -21  -5    6.80    1.94
  -4 -21   5    1.12    1.36
  -4 -21   6    2.23    1.78
  -4 -21  -6    3.79    1.79
  -4 -21   7    2.81    1.51
  -4 -21  -7    4.35    2.17
  -4 -21   8   22.35    3.75
  -4 -21  -8   19.92    3.66
  -4 -21   9   -1.52    1.42
  -4 -21  -9    2.73    1.20
  -4 -21  10   53.56    5.82
  -4 -21 -10   40.07    5.00
  -4 -21  11    4.17    1.91
  -4 -21 -11    7.41    2.54
  -4 -21  12   23.21    3.82
  -4 -21 -12   22.76    3.86
  -4 -21  13    8.06    2.63
  -4 -21 -13    5.76    2.30
  -4 -21  14  160.00   10.01
  -4 -21 -14  140.51    9.69
  -4 -21  15    6.22    2.58
  -4 -21 -15   11.30    3.12
  -4 -21 -16  184.86   11.30
  -4 -21  16  193.45   11.20
  -4 -21 -17   13.35    3.10
  -4 -21  17    9.93    2.87
  -4 -21 -18    5.24    2.16
  -4 -21  18    2.99    1.82
  -4 -21 -19    9.89    2.55
  -4 -21  19   12.96    3.28
  -4 -21 -20   20.44    3.90
  -4 -21  20   21.81    3.97
  -4 -21 -21    2.93    1.51
  -4 -21  21    5.82    2.61
  -4 -21  22    7.73    2.53
  -4 -21 -22    8.60    2.53
  -4 -21 -23   -2.09    1.72
  -4 -21  23    3.86    2.31
  -4 -21  24   25.60    4.34
  -4 -21  25   26.12    4.44
  -4 -22   0  380.71   16.39
  -4 -22   1  169.99   10.67
  -4 -22  -1  152.35   10.15
  -4 -22  -2    8.50    2.72
  -4 -22   2    5.45    2.10
  -4 -22  -3   -1.10    1.70
  -4 -22   3   -0.20    1.64
  -4 -22   4  121.61    8.80
  -4 -22  -4  102.46    8.15
  -4 -22  -5    7.46    2.26
  -4 -22   5    5.76    2.33
  -4 -22   6    2.42    1.49
  -4 -22  -6    7.59    2.48
  -4 -22   7   -2.05    1.72
  -4 -22  -7    1.00    1.35
  -4 -22   8   32.67    4.48
  -4 -22  -8   39.24    5.14
  -4 -22   9   11.61    3.07
  -4 -22  -9    8.79    2.46
  -4 -22  10  103.48    8.19
  -4 -22 -10   98.17    8.00
  -4 -22 -11    8.29    2.89
  -4 -22  11    6.28    2.13
  -4 -22  12   53.04    5.72
  -4 -22 -12   49.92    5.72
  -4 -22 -13   85.46    7.64
  -4 -22  13   92.20    7.72
  -4 -22 -14  145.26   10.02
  -4 -22  14  154.00   10.05
  -4 -22  15  118.42    8.83
  -4 -22 -15  108.90    8.84
  -4 -22  16    0.73    1.07
  -4 -22 -16    1.83    2.00
  -4 -22 -17    3.11    1.71
  -4 -22  17    1.75    1.67
  -4 -22 -18   28.02    4.60
  -4 -22  18   24.90    4.20
  -4 -22 -19   -1.98    1.48
  -4 -22  19   -1.54    1.58
  -4 -22  20    2.26    1.40
  -4 -22 -20    5.52    2.42
  -4 -22 -21    1.24    1.16
  -4 -22  21    4.27    2.20
  -4 -22 -22   33.61    5.18
  -4 -22  22   41.83    5.46
  -4 -22  23    5.54    2.28
  -4 -23   0    8.53    2.44
  -4 -23   1  123.62    9.12
  -4 -23  -1  116.62    9.00
  -4 -23  -2   34.00    5.04
  -4 -23   2   35.50    4.80
  -4 -23   3   77.75    7.14
  -4 -23  -3   70.82    6.94
  -4 -23  -4    6.84    2.48
  -4 -23   4   13.31    2.95
  -4 -23  -5   10.92    2.79
  -4 -23   5   10.15    2.92
  -4 -23  -6   26.34    4.35
  -4 -23   6   14.88    3.08
  -4 -23   7    6.15    2.01
  -4 -23  -7    4.53    2.10
  -4 -23   8    1.62    1.20
  -4 -23  -8    1.97    1.40
  -4 -23   9   11.78    3.08
  -4 -23  -9   15.10    3.39
  -4 -23  10    3.99    1.73
  -4 -23 -10    7.25    2.47
  -4 -23 -11   35.89    4.89
  -4 -23  11   24.54    4.06
  -4 -23  12   20.53    3.68
  -4 -23 -12   26.13    4.28
  -4 -23 -13   83.01    7.59
  -4 -23  13   93.64    7.88
  -4 -23 -14   21.37    4.02
  -4 -23  14   26.38    4.46
  -4 -23 -15  111.05    8.96
  -4 -23  15  121.29    9.08
  -4 -23  16   33.33    4.91
  -4 -23 -16   24.93    4.50
  -4 -23  17   47.79    5.70
  -4 -23 -17   54.57    6.45
  -4 -23 -18   16.76    3.72
  -4 -23  18   27.15    4.31
  -4 -23 -19    4.48    2.27
  -4 -23  19    7.62    2.74
  -4 -23 -20   11.66    3.22
  -4 -23  20   17.55    3.60
  -4 -23  21    5.09    2.20
  -4 -23  22   28.76    4.62
  -4 -24   0   97.69    8.44
  -4 -24   1   90.58    8.00
  -4 -24  -1   98.83    8.42
  -4 -24  -2    2.77    1.85
  -4 -24   2    6.15    2.04
  -4 -24  -3   28.11    4.39
  -4 -24   3   33.38    5.03
  -4 -24  -4   -0.61    1.12
  -4 -24   4   -1.06    1.23
  -4 -24   5  130.41    9.47
  -4 -24  -5  113.21    8.98
  -4 -24  -6    9.50    2.43
  -4 -24   6   10.65    2.96
  -4 -24   7   14.64    3.28
  -4 -24  -7   10.91    2.92
  -4 -24   8   21.57    3.74
  -4 -24  -8   21.07    3.89
  -4 -24   9  119.62    9.22
  -4 -24  -9  128.50    9.58
  -4 -24  10    2.11    1.79
  -4 -24 -10   -1.90    1.41
  -4 -24  11    3.37    1.78
  -4 -24 -11    0.79    1.25
  -4 -24 -12   27.51    4.43
  -4 -24  12   26.80    4.40
  -4 -24  13   32.67    4.81
  -4 -24 -13   25.07    4.37
  -4 -24 -14   67.40    6.99
  -4 -24  14   53.59    6.17
  -4 -24  15   35.75    5.10
  -4 -24 -15   28.63    4.73
  -4 -24  16   -0.94    1.29
  -4 -24 -16   -1.03    1.22
  -4 -24 -17   22.41    4.12
  -4 -24  17   28.18    4.61
  -4 -24  18    2.12    1.58
  -4 -24 -18    4.74    2.40
  -4 -24  19   52.65    6.28
  -4 -24  20    2.35    1.44
  -4 -25   0   10.43    2.85
  -4 -25   1    9.84    3.34
  -4 -25  -1   10.48    2.34
  -4 -25  -2   22.56    4.12
  -4 -25   2   24.62    4.25
  -4 -25  -3   32.77    5.00
  -4 -25   3   18.32    3.65
  -4 -25   4   65.92    6.88
  -4 -25  -4   62.74    6.78
  -4 -25  -5   -0.56    1.29
  -4 -25   5   -2.08    1.69
  -4 -25  -6   -1.26    1.81
  -4 -25   6   -0.76    1.52
  -4 -25  -7    4.42    2.14
  -4 -25   7    7.76    2.50
  -4 -25   8   -0.13    1.19
  -4 -25  -8    2.46    2.07
  -4 -25   9    1.50    1.64
  -4 -25  -9    3.53    2.01
  -4 -25  10   16.59    3.51
  -4 -25 -10    8.31    2.52
  -4 -25  11    5.24    1.79
  -4 -25 -11    6.36    2.23
  -4 -25  12   29.70    4.59
  -4 -25 -12   18.44    3.56
  -4 -25 -13    0.10    1.28
  -4 -25  13    1.08    1.18
  -4 -25  14   -1.63    1.69
  -4 -25 -14   -0.23    1.09
  -4 -25  15    6.17    2.37
  -4 -25 -15   12.64    3.22
  -4 -25  16    3.41    1.11
  -4 -25 -16    3.97    2.00
  -4 -25  17   18.49    3.92
  -4 -26   0    3.93    1.88
  -4 -26   1    0.42    1.38
  -4 -26  -1   -1.02    2.15
  -4 -26   2    0.93    1.16
  -4 -26  -2    2.98    1.88
  -4 -26  -3    1.91    2.00
  -4 -26   3    0.59    2.24
  -4 -26   4  133.48   10.09
  -4 -26  -4  132.72   10.20
  -4 -26  -5   -0.09    1.66
  -4 -26   5   -0.16    1.21
  -4 -26  -6   22.43    4.20
  -4 -26   6   23.50    4.29
  -4 -26  -7   -1.34    1.86
  -4 -26   7    0.93    1.20
  -4 -26   8   91.50    8.29
  -4 -26  -8   91.66    8.50
  -4 -26   9    4.95    2.21
  -4 -26  -9    0.83    1.98
  -4 -26  10   39.84    5.37
  -4 -26 -10   40.17    5.60
  -4 -26  11   12.15    2.92
  -4 -26 -11   12.27    3.22
  -4 -26  12   -0.64    1.56
  -4 -26 -12   -0.20    1.16
  -4 -26  13   10.07    2.97
  -4 -26 -13    8.18    2.70
  -4 -26  14    2.87    1.84
  -4 -26  15    5.00    1.84
  -4 -27   0   35.48    5.24
  -4 -27   1    5.04    2.02
  -4 -27  -1    4.49    2.01
  -4 -27   2   33.27    5.00
  -4 -27  -2   20.34    3.90
  -4 -27   3   14.10    3.17
  -4 -27  -3   13.26    3.30
  -4 -27  -4    1.09    1.36
  -4 -27   4    4.69    2.40
  -4 -27  -5   16.00    3.94
  -4 -27   5   16.96    3.63
  -4 -27  -6   22.25    4.21
  -4 -27   6   23.27    4.20
  -4 -27  -7    0.83    1.31
  -4 -27   7   -1.23    1.56
  -4 -27   8   15.37    3.32
  -4 -27  -8   11.68    3.15
  -4 -27   9    4.85    1.98
  -4 -27  -9    8.85    2.99
  -4 -27  10   15.84    3.46
  -4 -27  11    2.79    1.49
  -4 -28   0   13.24    3.26
  -4 -28   1    5.76    2.02
  -4 -28  -1    7.84    2.65
  -4 -28   2    2.99    1.70
  -4 -28  -2    1.90    1.40
  -4 -28   3   35.00    5.24
  -4 -28  -3   31.65    5.04
  -4 -28   4    1.37    1.35
  -4 -28   5   84.85    8.28
  -5   0   0    0.96    0.58
   5   0  -1    0.88    0.61
  -5   0   1   -0.09    0.64
  -5   0  -1    1.12    0.76
  -5   0  -2    8.75    1.41
   5   0  -2   14.98    2.10
  -5   0   2   10.35    1.63
  -5   0  -3   -0.06    0.54
  -5   0   3   -0.61    0.73
   5   0  -3   -0.83    0.82
  -5   0   4   22.41    2.34
  -5   0  -4   24.99    2.43
   5   0  -4   18.56    2.33
  -5   0   5   -0.14    0.61
   5   0  -5    0.57    0.62
  -5   0  -5   -0.38    0.70
  -5   0   6    1.73    0.91
  -5   0  -6    0.71    0.79
  -5   0  -7   -0.23    0.57
  -5   0   7    1.44    1.07
  -5   0  -8   35.99    3.01
  -5   0   8   35.09    3.11
  -5   0  -9    0.83    0.79
  -5   0   9   -0.39    0.67
  -5   0 -10    2.67    1.02
  -5   0  10    3.00    1.11
  -5   0  11   -0.59    0.57
  -5   0  12   10.62    1.91
  -5   0  13    1.54    1.20
  -5   0  14   54.08    4.37
  -5   0  15    8.37    1.87
  -5   0  16   60.21    4.79
  -5   0  17    1.78    1.26
  -5   0  18    1.83    1.52
  -5   0  19   -0.45    0.77
  -5   0  20    7.27    2.13
  -5   0  21    1.04    0.83
  -5   0  22    5.34    1.54
  -5   0  23    1.55    1.21
  -5   0  24   -0.97    1.09
  -5   0  25    0.18    1.47
  -5   0  26    0.65    1.00
  -5   0  27   -3.47    2.50
  -5   0  28   30.31    4.62
  -5   0  29   -1.21    1.36
  -5   0  30   49.55    6.10
  -5   0  31    1.40    1.63
  -5   0  32   -0.54    1.21
  -5   0  33    4.70    2.98
  -5   0  34    6.39    2.44
  -5   0  35    2.85    2.01
  -5   0  36    1.89    2.17
   5   1   0    0.20    0.55
  -5   1   0   -0.69    0.46
  -5  -1   0    1.13    0.87
  -5   1   1   19.98    2.01
   5  -1  -1   17.20    2.10
   5   1  -1   17.21    2.19
  -5   1  -1   18.77    2.02
  -5  -1  -1   23.07    2.38
  -5  -1   1   20.80    2.26
  -5  -1  -2   16.67    2.04
  -5   1   2   16.54    1.88
   5  -1  -2   16.75    2.02
   5   1  -2   16.52    2.19
  -5  -1   2   18.32    2.14
  -5   1  -2   14.59    1.78
  -5   1  -3   15.88    1.87
  -5   1   3   12.38    1.68
  -5  -1  -3   16.35    2.03
  -5  -1   3   18.05    2.15
   5  -1  -3   15.33    2.01
   5   1  -3   12.96    1.99
  -5   1   4   19.55    2.08
  -5  -1   4   17.10    2.05
   5  -1  -4   20.99    2.37
  -5   1  -4   16.94    1.90
  -5  -1  -4   21.16    2.32
  -5   1   5    9.16    1.49
  -5  -1   5    5.47    1.21
   5  -1  -5    5.06    1.28
  -5   1  -5    6.07    1.18
  -5  -1  -5    5.81    1.28
  -5   1  -6  295.83    9.03
  -5  -1  -6  307.00    9.70
  -5   1   6  306.13    9.41
  -5  -1   6  300.30    9.76
   5  -1  -6  280.30    9.91
  -5   1   7  366.25   10.77
  -5   1  -7  380.26   10.56
   5  -1  -7  325.70   11.14
  -5  -1   7  378.47   11.28
  -5  -1  -7  375.81   11.11
  -5   1  -8   49.02    3.45
  -5  -1  -8   48.34    3.65
  -5   1   8   49.38    3.62
  -5  -1   8   49.47    3.73
  -5   1  -9    1.38    0.66
  -5  -1  -9    1.56    0.84
  -5   1   9    2.81    1.02
  -5  -1   9    1.87    0.81
  -5  -1 -10  141.79    6.54
  -5   1 -10  134.04    6.07
  -5   1  10  138.27    6.47
  -5  -1  10  133.74    6.58
  -5   1  11  261.88    9.39
  -5  -1  11  255.07    9.55
  -5   1  12   21.59    2.71
  -5  -1  12   24.00    2.74
  -5   1  13   68.96    4.83
  -5  -1  13   69.95    4.95
  -5   1  14   24.50    3.01
  -5  -1  14   26.18    3.09
  -5   1  15    5.28    1.56
  -5  -1  15    6.28    1.95
  -5   1  16    1.99    1.32
  -5  -1  16    1.97    1.18
  -5   1  17   50.55    4.47
  -5  -1  17   54.66    4.65
  -5   1  18   91.52    6.23
  -5  -1  18   88.34    6.15
  -5   1  19   93.37    6.48
  -5  -1  19   92.45    6.39
  -5   1  20  284.57   12.08
  -5  -1  20  272.49   11.60
  -5   1  21    5.74    1.95
  -5  -1  21    1.49    1.20
  -5   1  22    9.13    2.37
  -5  -1  22    8.92    2.18
  -5   1  23   24.38    3.85
  -5  -1  23   22.59    3.64
  -5   1  24   54.64    5.56
  -5  -1  24   50.24    5.23
  -5   1  25   89.46    7.45
  -5  -1  25   95.93    7.58
  -5   1  26   24.40    3.91
  -5  -1  26   34.25    4.65
  -5   1  27   -0.41    1.28
  -5  -1  27   -0.46    1.34
  -5   1  28   12.98    2.94
  -5  -1  28   11.22    3.06
  -5   1  29   21.16    3.99
  -5  -1  29   18.60    3.53
  -5   1  30    0.05    1.43
  -5  -1  30    3.20    1.76
  -5   1  31   53.80    6.34
  -5  -1  31   55.90    6.54
  -5   1  32  168.56   11.49
  -5  -1  32  177.57   11.99
  -5   1  33  160.98   11.29
  -5  -1  33  149.10   11.25
  -5   1  34   86.58    8.25
  -5  -1  34   81.75    8.31
  -5   1  35   11.68    3.55
  -5  -1  35   14.76    3.71
  -5   1  36   47.36    6.15
  -5  -1  36   53.07    6.70
  -5   2   0    0.26    0.41
  -5  -2   0    0.28    0.95
  -5  -2  -1    0.04    0.58
  -5   2   1   -0.09    0.46
   5  -2  -1    0.41    0.46
  -5   2  -1    0.33    0.42
  -5  -2   1    1.17    0.51
  -5   2   2   37.83    2.76
   5  -2  -2   29.76    2.63
  -5  -2   2   36.38    3.02
  -5   2  -2   32.26    2.52
  -5  -2  -2   33.30    2.96
  -5  -2  -3   65.72    4.20
  -5  -2   3   63.74    4.14
   5  -2  -3   60.54    3.84
  -5   2  -3   63.96    3.65
  -5   2   3   65.15    3.69
  -5   2   4    2.99    0.84
  -5   2  -4    2.50    0.67
  -5  -2   4    2.17    0.79
  -5  -2  -4    4.11    1.06
   5  -2  -4    2.91    0.84
  -5  -2   5   35.09    3.15
   5  -2  -5   29.97    2.90
  -5  -2  -5   23.84    2.57
  -5   2   5   30.22    2.56
  -5   2  -5   25.64    2.32
  -5   2  -6  361.26   10.06
  -5  -2  -6  381.76   11.43
  -5   2   6  399.11   10.81
   5  -2  -6  375.01   11.44
  -5  -2   6  384.41   11.54
  -5   2   7   70.87    4.14
  -5   2  -7   64.54    3.78
   5  -2  -7   65.41    4.44
  -5  -2  -7   64.26    4.31
  -5  -2   7   80.53    4.79
  -5   2  -8  608.33   14.48
  -5  -2  -8  625.33   15.94
  -5   2   8  657.59   15.42
   5  -2  -8  580.84   15.80
  -5  -2   8  638.89   16.16
  -5  -2  -9    3.81    1.17
  -5   2   9    4.18    1.18
  -5   2  -9    2.72    0.72
  -5  -2   9    5.12    1.25
  -5   2 -10   21.00    2.22
  -5  -2 -10   23.78    2.64
  -5   2  10   25.25    2.69
  -5  -2  10   20.20    2.43
  -5   2  11   30.91    3.17
  -5  -2  11   32.62    3.28
  -5   2  12  103.77    5.76
  -5  -2  12   99.86    5.87
  -5   2  13    9.94    1.98
  -5  -2  13    9.42    1.87
  -5   2  14    1.62    1.17
  -5  -2  14    1.28    1.06
  -5   2  15    3.59    1.37
  -5  -2  15    1.76    1.23
  -5   2  16    9.21    2.00
  -5  -2  16    6.42    1.88
  -5   2  17   45.77    4.26
  -5  -2  17   41.66    4.17
  -5   2  18    1.15    0.99
  -5  -2  18    5.18    1.62
  -5   2  19    6.06    1.83
  -5  -2  19    9.42    2.14
  -5   2  20  110.80    7.49
  -5  -2  20  116.98    7.44
  -5   2  21   53.77    5.36
  -5  -2  21   60.49    5.45
  -5   2  22  332.77   14.10
  -5  -2  22  328.19   13.41
  -5   2  23   25.47    3.85
  -5  -2  23   34.49    4.19
  -5   2  24   26.80    4.00
  -5  -2  24   28.97    3.95
  -5   2  25   -2.57    2.08
  -5  -2  25   -0.84    1.08
  -5   2  26   41.47    5.31
  -5  -2  26   42.49    5.18
  -5   2  27   -1.66    1.86
  -5  -2  27    1.95    1.26
  -5   2  28   12.29    3.05
  -5  -2  28   14.51    3.15
  -5   2  29    2.51    1.87
  -5  -2  29    1.38    1.28
  -5   2  30    1.80    1.98
  -5  -2  30    1.01    1.16
  -5  -2  31   10.49    2.82
  -5   2  31   20.28    3.98
  -5   2  32    1.07    1.48
  -5  -2  32   -1.89    1.69
  -5   2  33   11.76    3.37
  -5  -2  33    4.50    2.03
  -5   2  34   35.28    5.24
  -5  -2  34   29.08    5.18
  -5   2  35    2.34    1.96
  -5  -2  35    1.24    1.40
  -5  -2  36   77.79    8.18
  -5   2  36   78.53    7.90
  -5   3   0   -0.20    0.40
  -5  -3   0    0.20    0.59
  -5  -3  -1   18.61    2.33
  -5   3  -1   21.17    1.89
   5  -3  -1   20.43    1.99
  -5  -3   1   22.25    2.50
  -5   3   1   18.47    1.84
   5  -3  -2   72.86    3.96
  -5   3  -2   69.32    3.58
  -5  -3   2   73.16    4.56
  -5   3   2   74.21    3.73
  -5  -3  -2   73.56    4.55
   5  -3  -3    4.30    0.99
  -5  -3  -3    4.41    1.35
  -5  -3   3    4.40    1.20
  -5   3  -3    5.19    1.00
  -5   3   3    4.48    0.90
  -5   3  -4    1.22    0.65
  -5  -3   4    0.87    0.90
  -5  -3  -4    0.79    0.55
  -5   3   4    1.95    0.80
   5  -3  -4    1.34    0.69
   5  -3  -5  564.10   14.22
  -5  -3   5  600.58   15.42
  -5  -3  -5  590.51   15.33
  -5   3   5  599.18   13.76
  -5   3  -5  567.64   13.02
  -5  -3   6   45.92    3.78
  -5   3  -6   38.61    2.68
  -5   3   6   37.24    2.91
  -5  -3  -6   43.99    3.64
   5  -3  -6   36.32    3.07
  -5   3  -7  603.30   13.91
  -5   3   7  662.41   15.06
   5  -3  -7  600.50   15.48
  -5  -3  -7  626.96   16.21
  -5  -3   7  641.62   16.39
  -5  -3  -8   60.07    4.39
  -5   3   8   78.61    4.44
   5  -3  -8   66.69    4.41
  -5  -3   8   68.92    4.64
  -5   3  -8   71.16    3.84
  -5  -3  -9   21.20    2.49
  -5  -3   9   23.43    2.76
  -5   3   9   23.38    2.52
  -5   3  -9   23.60    2.20
   5  -3  -9   20.39    2.49
  -5   3 -10   31.84    2.66
  -5   3  10   36.71    3.28
  -5  -3  10   32.61    3.25
  -5  -3 -10   32.77    3.20
  -5   3  11   14.06    2.13
  -5  -3 -11    9.46    1.76
  -5  -3  11   12.27    2.04
  -5   3  12  288.87   10.19
  -5  -3  12  293.70   10.75
  -5   3  13    5.95    1.55
  -5  -3  13    7.45    1.67
  -5   3 -13    7.29    1.50
  -5   3  14   72.98    5.15
  -5  -3  14   74.28    5.25
  -5   3 -14   73.45    4.81
  -5   3  15    2.19    1.20
  -5  -3  15    6.46    1.80
  -5   3  16    5.88    1.63
  -5  -3  16    9.17    2.07
  -5   3  17   12.03    2.21
  -5  -3  17   13.14    2.54
  -5   3  18  124.66    7.60
  -5  -3  18  147.05    8.13
  -5   3  19  689.14   20.49
  -5  -3  19  697.06   19.99
  -5   3  20    6.28    2.22
  -5  -3  20    7.13    2.23
  -5   3  21  407.05   15.57
  -5  -3  21  390.89   14.71
  -5   3  22   60.28    5.82
  -5  -3  22   52.38    5.11
  -5   3  23   50.09    5.41
  -5  -3  23   46.28    4.90
  -5   3  24   10.75    2.65
  -5  -3  24   18.46    3.30
  -5   3  25   18.99    3.41
  -5  -3  25   19.89    3.37
  -5   3  26   97.13    7.93
  -5  -3  26   99.33    7.80
  -5   3  27   55.54    6.07
  -5  -3  27   64.82    6.48
  -5   3  28   13.51    3.16
  -5  -3  28   25.22    4.25
  -5   3  29    7.32    2.44
  -5  -3  29   10.03    2.53
  -5   3  30    1.17    1.33
  -5  -3  30    1.84    1.14
  -5   3  31   29.97    4.57
  -5  -3  31   25.01    4.26
  -5   3  32  132.31    9.75
  -5  -3  32   98.25    8.94
  -5   3  33  229.02   13.21
  -5  -3  33  203.90   13.20
  -5   3  34    8.13    2.89
  -5  -3  34    3.65    2.20
  -5  -3  35   63.27    7.45
  -5   3  35   71.37    7.42
  -5   3  36    1.04    1.59
  -5  -4   0    0.65    0.70
  -5   4   0    0.15    0.34
  -5   4   1   11.07    1.30
   5  -4  -1   11.24    1.39
  -5   4  -1   11.42    1.36
  -5  -4  -1   11.53    1.90
  -5  -4   1   12.18    1.95
   5  -4  -2   90.85    4.21
  -5   4  -2   95.63    3.93
  -5  -4   2   90.42    5.31
  -5   4   2   90.89    4.00
  -5  -4  -2   95.83    5.48
  -5  -4  -3   33.11    3.24
  -5  -4   3   30.08    3.02
  -5   4  -3   33.97    2.25
   5  -4  -3   31.96    2.52
  -5   4   3   33.42    2.42
  -5  -4   4   31.32    3.10
   5  -4  -4   31.40    2.59
  -5  -4  -4   32.05    3.17
  -5   4  -4   32.77    2.25
  -5   4   4   31.85    2.41
   5  -4  -5  137.27    5.75
  -5  -4   5  128.49    6.46
  -5  -4  -5  138.92    6.73
  -5   4   5  138.55    5.43
  -5   4  -5  129.43    4.88
  -5   4  -6  242.34    7.12
  -5  -4   6  237.52    9.13
  -5   4   6  241.39    7.79
  -5  -4  -6  239.46    9.16
   5  -4  -6  238.28    8.23
  -5  -4   7  589.07   15.88
  -5   4  -7  575.85   12.84
  -5   4   7  589.90   14.11
   5  -4  -7  575.47   14.54
  -5  -4  -7  578.33   15.81
  -5  -4  -8  322.13   11.06
  -5   4   8  335.12   10.03
   5  -4  -8  311.78   10.14
  -5   4  -8  335.67    8.98
  -5  -4   8  331.91   11.16
  -5   4  -9  218.41    7.05
  -5   4   9  227.29    8.23
   5  -4  -9  206.73    8.21
  -5  -4  -9  225.00    8.96
  -5  -4   9  227.79    9.05
   5  -4 -10   25.20    2.75
  -5   4  10   27.82    2.88
  -5  -4 -10   28.19    3.02
  -5  -4  10   31.86    3.31
  -5   4 -10   26.41    2.33
  -5   4  11   17.24    2.31
  -5  -4 -11   16.11    2.35
  -5   4 -11   20.15    2.22
  -5  -4  11   18.71    2.50
  -5   4  12  110.56    6.07
  -5  -4  12   99.28    6.05
  -5   4 -12  100.77    5.19
  -5   4  13   31.92    3.29
  -5  -4  13   30.10    3.40
  -5   4 -13   34.88    3.12
  -5   4 -14    4.24    1.22
  -5   4  14    4.44    1.17
  -5  -4  14    3.39    1.21
  -5   4 -15    7.65    1.66
  -5   4  15    5.96    1.54
  -5  -4  15    8.54    2.09
  -5   4  16   33.20    3.69
  -5  -4  16   31.26    3.58
  -5   4  17    8.40    1.96
  -5  -4  17   14.39    2.50
  -5   4  18   16.85    2.86
  -5  -4  18   16.61    2.89
  -5   4  19   13.82    2.86
  -5  -4  19   11.55    2.46
  -5   4  20   90.60    6.99
  -5  -4  20   90.50    6.73
  -5  -4  21  260.93   11.63
  -5   4  21  230.10   11.60
  -5   4  22   72.89    6.48
  -5  -4  22   71.22    5.97
  -5   4  23  185.20   10.62
  -5  -4  23  182.74   10.08
  -5   4  24    0.16    1.62
  -5  -4  24   -0.49    1.01
  -5   4  25    6.15    2.28
  -5  -4  25    2.49    1.53
  -5   4  26   27.38    4.19
  -5  -4  26   32.92    4.55
  -5   4  27   30.07    4.38
  -5  -4  27   36.61    4.90
  -5   4  28    4.56    2.26
  -5  -4  28    4.33    1.63
  -5   4  29    3.14    1.86
  -5  -4  29    1.47    1.38
  -5   4  30    2.62    1.82
  -5  -4  30   -1.20    1.64
  -5   4  31   12.28    3.11
  -5  -4  31   12.85    3.40
  -5   4  32   -0.48    1.20
  -5  -4  32   -1.50    1.50
  -5   4  33    2.02    1.89
  -5  -4  33    3.83    2.01
  -5   4  34   13.93    3.35
  -5  -4  34   10.81    3.09
  -5  -4  35   40.39    5.71
  -5   4  35   50.48    6.27
  -5   4  36   39.14    5.72
  -5  -5   0   -0.53    0.79
  -5   5   0    0.06    0.57
  -5  -5   1  248.79    9.43
  -5   5   1  257.80    6.94
  -5  -5  -1  258.50    9.63
  -5   5  -1  259.07    6.66
  -5   5  -2  321.67    7.73
   5  -5  -2  310.58    8.28
  -5  -5   2  321.38   10.86
  -5   5   2  322.17    8.18
  -5  -5  -2  328.19   11.09
  -5  -5  -3   30.48    3.18
  -5   5  -3   34.48    2.09
  -5  -5   3   33.37    3.25
  -5   5   3   34.25    2.38
   5  -5  -3   33.53    2.40
   5  -5  -4  539.04   12.55
  -5  -5  -4  545.19   15.15
  -5  -5   4  533.55   15.02
  -5   5  -4  533.46   11.22
  -5   5   4  534.15   12.20
  -5  -5   5  104.40    5.94
  -5   5   5  107.23    4.74
  -5  -5  -5  102.57    5.93
  -5   5  -5  105.30    3.96
   5  -5  -5   96.82    4.63
  -5  -5   6 1755.60   34.75
  -5   5   6 1783.03   31.81
  -5  -5  -6 1765.35   34.77
   5  -5  -6 1751.88   32.08
  -5   5  -6 1758.46   29.91
  -5  -5   7    8.19    1.99
  -5   5   7    7.23    1.53
  -5   5  -7    6.43    1.03
  -5  -5  -7    7.48    1.84
   5  -5  -7    3.96    1.09
  -5  -5  -8  927.87   21.87
  -5   5   8  952.14   20.03
   5  -5  -8  872.85   19.73
  -5  -5   8  923.90   21.90
  -5   5  -8  913.06   17.76
  -5  -5   9   21.69    2.80
  -5   5  -9   25.67    2.09
  -5   5   9   24.42    2.60
   5  -5  -9   19.92    2.34
  -5  -5  -9   25.22    3.02
  -5   5  -9   26.82    2.23
  -5   5  10  213.42    8.27
   5  -5 -10  177.51    7.55
  -5  -5 -10  185.89    8.44
  -5   5 -10  192.53    6.42
  -5  -5  10  199.39    8.71
  -5   5 -10  200.98    6.82
  -5  -5 -11   44.61    4.02
  -5   5  11   52.37    4.09
  -5  -5  11   42.71    3.95
  -5   5 -11   53.99    3.53
  -5   5 -12   41.93    3.29
  -5   5  12   45.00    3.90
  -5  -5  12   51.36    4.35
  -5   5 -13   52.36    3.89
  -5   5  13   58.24    4.67
  -5  -5  13   53.53    4.56
  -5   5 -14    1.17    0.81
  -5   5  14    1.40    0.76
  -5  -5  14    0.05    0.73
  -5   5 -15   34.13    3.47
  -5   5  15   39.64    4.12
  -5  -5  15   46.47    4.38
  -5   5 -16   62.26    5.01
  -5   5  16   66.38    5.42
  -5  -5  16   70.00    5.38
  -5   5  17    7.96    2.15
  -5  -5  17    7.09    1.86
  -5   5  18  381.61   14.45
  -5  -5  18  361.81   13.50
  -5   5  19   54.11    5.39
  -5  -5  19   47.47    4.85
  -5   5  20 1159.06   29.40
  -5  -5  20 1107.00   27.86
  -5   5  21    0.43    1.90
  -5  -5  21    2.15    2.13
  -5   5  22  242.55   11.99
  -5  -5  22  247.32   11.74
  -5   5  23   11.84    2.89
  -5  -5  23    9.79    2.41
  -5   5  24   -0.31    1.11
  -5  -5  24    0.84    1.43
  -5   5  25   86.23    7.38
  -5  -5  25   91.12    7.30
  -5   5  26   11.06    2.62
  -5  -5  26   10.21    2.52
  -5   5  27   -0.30    1.62
  -5  -5  27    2.25    1.86
  -5   5  28   18.51    3.47
  -5  -5  28   22.06    3.98
  -5  -5  29    0.17    1.40
  -5   5  29    1.89    1.88
  -5   5  30   25.62    4.32
  -5  -5  30   24.68    4.35
  -5  -5  31   15.71    3.66
  -5   5  31   20.52    3.82
  -5  -5  32  150.30   11.04
  -5   5  32  170.23   10.88
  -5   5  33    2.50    2.03
  -5  -5  33   -0.22    1.93
  -5  -5  34  184.07   12.76
  -5   5  34  218.29   12.71
  -5   5  35    6.36    2.98
  -5  -5  35   -4.11    2.70
  -5   5  36   72.29    7.64
  -5  -6   0   -0.98    1.29
  -5   6   0    0.50    0.37
  -5  -6  -1    5.21    1.19
  -5   6   1    6.84    0.95
  -5   6  -1    5.24    0.74
  -5  -6   1    4.83    1.28
  -5  -6  -2    5.44    1.54
  -5   6   2    3.51    0.74
   5  -6  -2    3.76    0.80
  -5  -6   2    5.40    1.37
  -5   6  -2    4.14    0.65
  -5   6   3   19.44    1.67
   5  -6  -3   21.57    1.74
  -5  -6  -3   20.21    2.69
  -5  -6   3   20.22    2.61
  -5   6  -3   17.88    1.31
  -5   6  -4    6.98    0.85
  -5   6   4    8.07    1.23
  -5  -6   4    5.97    1.65
   5  -6  -4    6.41    1.07
  -5  -6  -4    8.56    1.93
  -5  -6   5   73.67    5.01
  -5   6   5   70.57    3.72
  -5   6  -5   75.45    2.96
  -5  -6  -5   80.94    5.28
   5  -6  -5   72.77    3.76
  -5   6  -6    0.65    0.48
   5  -6  -6    0.38    0.70
  -5   6   6   -0.01    0.75
  -5  -6  -6    2.02    1.31
  -5  -6   6    0.10    0.86
  -5   6  -7   39.18    2.24
  -5  -6   7   37.17    3.68
  -5   6   7   43.16    3.18
   5  -6  -7   37.54    2.89
  -5  -6  -7   31.90    3.41
  -5   6  -7   48.24    2.55
  -5   6  -8    9.25    1.21
  -5   6  -8    9.31    1.14
  -5  -6  -8    7.00    1.77
  -5  -6   8    8.41    1.89
  -5   6   8    8.67    1.48
   5  -6  -8    5.39    1.07
  -5  -6   9    3.34    1.35
  -5   6   9    4.65    0.97
   5  -6  -9    2.80    0.91
  -5  -6  -9    5.93    1.77
  -5   6  -9    6.59    1.11
  -5   6  -9    3.07    0.76
  -5  -6  10    2.73    1.22
  -5   6 -10    1.89    0.71
  -5   6 -10    3.20    0.80
  -5  -6 -10    4.18    1.37
  -5   6  10    6.41    1.52
   5  -6 -10    2.01    0.95
  -5  -6  11   10.95    2.15
  -5   6 -11    9.57    1.50
  -5   6  11    9.17    1.70
   5  -6 -11    9.26    1.64
  -5  -6 -11   11.64    2.20
  -5  -6  12    2.27    1.07
  -5   6 -12    1.98    0.82
  -5   6  12    0.17    0.68
  -5  -6 -12    2.01    1.22
  -5   6 -13   -0.27    0.82
  -5   6  13    0.57    0.89
  -5  -6  13    0.67    0.68
  -5   6  14   -0.07    1.04
  -5   6 -14   -0.65    0.89
  -5  -6  14    0.01    0.82
  -5   6  15   20.73    3.02
  -5   6 -15   13.33    2.19
  -5  -6  15   15.69    2.61
  -5   6  16   30.50    3.86
  -5   6 -16   23.20    2.98
  -5  -6  16   25.31    3.25
  -5   6  17    7.31    1.99
  -5   6 -17    4.81    1.51
  -5  -6  17    9.96    2.41
  -5   6  18   20.31    3.27
  -5  -6  18   12.97    2.83
  -5   6  19   48.23    5.02
  -5  -6  19   59.03    5.23
  -5   6  20    2.67    1.57
  -5  -6  20    4.23    1.92
  -5   6  21   54.45    5.48
  -5  -6  21   54.00    5.26
  -5   6  22    9.00    2.52
  -5  -6  22   10.80    2.59
  -5   6  23    3.21    1.07
  -5  -6  23    7.45    2.39
  -5   6  24    5.22    2.06
  -5  -6  24    3.07    1.42
  -5   6  25   10.96    2.66
  -5  -6  25    8.97    2.36
  -5   6  26    2.09    1.29
  -5  -6  26    6.46    2.15
  -5   6  27   -0.14    1.01
  -5  -6  27   -0.88    1.01
  -5   6  28    2.21    1.85
  -5  -6  28    2.07    1.66
  -5   6  29   23.88    4.04
  -5  -6  29   29.65    4.62
  -5   6  30   15.32    3.23
  -5  -6  30    9.63    2.76
  -5   6  31    2.33    1.87
  -5  -6  31   -0.96    1.84
  -5   6  32   16.73    3.63
  -5  -6  32   16.98    3.84
  -5   6  33   10.46    3.38
  -5  -6  33    7.97    2.55
  -5   6  34    0.82    1.59
  -5  -6  34   -2.17    2.41
  -5   6  35    6.96    2.17
  -5   6  36    8.64    2.94
  -5  -7   0   -1.03    1.38
  -5   7   0    0.30    0.22
  -5   7   1  111.94    3.87
  -5   7  -1  114.52    3.33
  -5  -7   1  109.76    6.42
  -5  -7  -1  117.03    6.52
  -5   7   2  149.88    4.90
  -5   7  -2  144.47    3.66
  -5  -7   2  153.25    7.49
   5  -7  -2  148.01    4.49
  -5  -7  -2  144.75    7.37
  -5   7   3    0.25    0.43
  -5  -7  -3   -0.88    1.21
   5  -7  -3    0.28    0.28
  -5   7  -3    0.08    0.21
  -5  -7   3    1.03    0.81
  -5   7   4   10.76    1.61
  -5  -7   4    8.04    1.74
   5  -7  -4   10.07    1.22
  -5   7  -4    8.34    0.73
  -5  -7  -4   11.51    2.18
  -5   7  -4   11.14    0.86
  -5   7  -5 1050.56   17.54
  -5   7  -5  969.37   17.10
  -5   7   5 1035.10   20.74
  -5  -7   5 1049.64   24.13
  -5  -7  -5 1052.59   24.17
   5  -7  -5 1083.38   19.86
  -5   7  -6    7.19    0.91
  -5   7   6    9.67    2.09
  -5   7  -6    9.71    0.86
  -5  -7  -6    8.23    1.87
  -5  -7   6    8.88    2.06
   5  -7  -6   10.81    1.50
  -5   7  -7 1385.71   24.15
  -5   7   7 1294.25   27.02
  -5  -7   7 1447.82   30.09
   5  -7  -7 1392.50   26.00
  -5   7  -7 1386.45   23.05
  -5  -7  -7 1416.14   30.15
  -5  -7   8  207.38    9.07
  -5   7  -8  180.39    5.87
  -5   7   8  170.92    7.51
  -5   7  -8  183.09    5.13
   5  -7  -8  178.08    6.71
  -5  -7  -8  189.58    8.68
  -5   7   9  739.31   18.62
  -5   7  -9  770.97   15.97
   5  -7  -9  727.75   16.99
  -5  -7  -9  754.65   19.94
  -5  -7   9  764.20   19.85
  -5   7  -9  764.51   14.55
  -5  -7 -10    1.21    0.79
  -5  -7  10    1.02    1.00
  -5   7  10    3.70    1.54
  -5   7 -10    3.05    0.93
   5  -7 -10    1.57    0.79
  -5   7 -10    2.65    0.67
  -5   7  11   58.81    4.57
   5  -7 -11   50.86    3.93
  -5   7 -11   54.35    3.50
  -5  -7 -11   50.06    4.43
  -5  -7  11   52.36    4.59
  -5  -7  12   11.74    2.29
  -5   7  12   10.03    2.06
  -5   7 -12   12.46    1.72
  -5  -7 -12   11.72    2.19
  -5   7  13   13.48    2.37
  -5   7 -13   12.84    1.91
  -5  -7 -13   13.22    2.38
  -5  -7  13   11.09    2.16
  -5   7  14    1.78    1.11
  -5   7 -14    2.01    0.99
  -5  -7  14    2.26    1.32
  -5   7  15  195.45    9.20
  -5   7 -15  176.30    7.86
  -5  -7  15  171.14    8.83
  -5   7  16  100.42    6.63
  -5   7 -16   90.97    5.70
  -5  -7  16  102.05    6.75
  -5   7  17  107.75    7.04
  -5   7 -17   89.32    5.83
  -5  -7  17  102.14    6.89
  -5   7  18   10.88    2.73
  -5  -7  18    9.07    2.45
  -5   7  19  728.70   21.02
  -5  -7  19  675.31   20.22
  -5   7  20    6.40    2.37
  -5  -7  20    3.23    1.86
  -5   7  21  697.41   21.26
  -5  -7  21  690.06   20.95
  -5   7  22   55.65    5.66
  -5  -7  22   43.19    4.97
  -5  -7  23  296.64   13.33
  -5   7  23  327.16   13.89
  -5  -7  24   52.31    5.53
  -5   7  24   52.69    5.60
  -5   7  25   11.32    2.80
  -5  -7  25    6.88    2.32
  -5   7  26   27.92    4.15
  -5  -7  26   29.03    4.30
  -5   7  27   10.89    2.72
  -5  -7  27    9.92    2.64
  -5   7  28    9.72    2.66
  -5  -7  28    7.55    2.61
  -5   7  29   34.98    4.87
  -5  -7  29   22.19    4.07
  -5   7  30    2.83    1.71
  -5  -7  30    0.11    1.18
  -5  -7  31  135.57   10.20
  -5   7  31  161.02   10.63
  -5   7  32   18.40    3.76
  -5  -7  32    7.16    2.65
  -5  -7  33  228.87   13.89
  -5   7  33  243.05   13.32
  -5  -7  34   -0.72    1.85
  -5   7  34    2.82    2.02
  -5  -8   0    0.32    0.81
  -5  -8   1    0.91    1.13
  -5   8   1    0.75    0.30
  -5  -8  -1    0.36    0.72
  -5  -8  -2   16.29    2.63
  -5  -8   2   14.58    2.43
  -5   8   2   14.14    1.17
  -5   8   3    8.70    1.06
   5  -8  -3    8.79    0.94
  -5  -8  -3    5.89    1.62
  -5  -8   3    8.84    1.92
  -5   8   4    1.64    0.44
  -5  -8   4    1.25    1.11
   5  -8  -4    2.39    0.60
  -5  -8  -4    2.87    1.05
  -5  -8  -5    9.69    2.06
  -5   8   5   11.97    1.46
   5  -8  -5    9.05    1.15
  -5  -8   5   12.17    2.30
  -5   8   6  157.19    6.04
  -5  -8   6  171.52    8.22
  -5  -8  -6  176.47    8.39
   5  -8  -6  174.85    5.83
  -5   8   7  110.67    5.23
  -5  -8   7  127.59    7.06
   5  -8  -7  119.46    4.96
  -5  -8  -7  124.16    7.02
  -5   8   8  160.94    6.67
  -5  -8   8  186.04    8.71
   5  -8  -8  159.57    6.11
  -5   8  -8  154.72    4.37
  -5   8  -8  159.11    4.09
  -5  -8  -8  171.98    8.43
  -5   8   9   56.08    3.99
  -5  -8  -9   60.11    4.92
   5  -8  -9   53.11    3.55
  -5   8  -9   54.91    2.39
  -5   8  -9   49.26    2.54
  -5  -8   9   61.80    5.02
  -5   8 -10    8.44    1.00
  -5   8  10    7.40    1.51
  -5  -8  10    7.85    2.06
   5  -8 -10    8.25    1.58
  -5   8 -10    9.10    1.17
  -5  -8 -10   10.62    2.20
  -5   8  11   13.95    2.11
  -5  -8  11   14.27    2.42
   5  -8 -11   12.03    1.86
  -5  -8 -11   12.90    2.48
  -5   8 -11   11.01    1.38
  -5   8 -11   13.56    1.34
  -5  -8 -12    4.11    1.46
  -5  -8  12    2.86    1.23
  -5   8  12    3.66    1.14
   5  -8 -12    3.28    1.23
  -5   8 -12    5.64    1.07
  -5  -8  13    8.46    2.03
  -5   8  13    8.89    1.94
  -5  -8 -13    6.12    1.73
  -5   8 -13    8.64    1.43
  -5   8  14    5.55    1.53
  -5   8 -14    5.78    1.31
  -5  -8  14    6.06    1.65
  -5   8  15    0.82    1.43
  -5   8 -15    0.91    0.81
  -5  -8  15    0.13    1.25
  -5   8  16    7.69    1.89
  -5  -8  16    6.78    1.81
  -5   8  17   25.35    3.41
  -5  -8  17   25.50    3.49
  -5   8  18   14.18    2.63
  -5  -8  18   11.24    2.41
  -5   8  19   23.70    3.38
  -5  -8  19   17.88    3.12
  -5  -8  20   74.51    6.11
  -5   8  20   75.83    6.04
  -5  -8  21   35.19    4.41
  -5   8  21   46.86    4.82
  -5  -8  22  147.87    9.08
  -5   8  22  162.88    9.29
  -5   8  23   28.96    3.99
  -5  -8  23   23.76    3.80
  -5   8  24   37.91    4.60
  -5  -8  24   39.54    4.79
  -5   8  25    4.74    1.82
  -5  -8  25    8.21    2.44
  -5   8  26    3.99    2.11
  -5  -8  26    4.72    2.11
  -5   8  27   16.91    3.29
  -5  -8  27   16.19    3.41
  -5   8  28    9.99    2.62
  -5  -8  28   10.95    2.92
  -5  -8  29    4.54    1.99
  -5   8  29    7.97    2.64
  -5   8  30    9.34    2.84
  -5  -8  30    8.17    2.65
  -5  -8  31   11.50    3.29
  -5  -8  32   10.40    2.89
  -5  -8  33    3.47    1.62
  -5  -9   0   -0.29    0.79
  -5  -9   1   15.71    2.36
  -5  -9  -1   14.64    2.54
  -5  -9  -2   35.27    3.82
  -5  -9   2   39.72    3.84
  -5  -9  -3   53.76    4.66
  -5  -9   3   49.17    4.34
   5  -9  -3   46.53    1.96
  -5  -9  -4   55.86    4.71
   5  -9  -4   60.38    2.54
  -5  -9   4   57.83    4.77
  -5  -9   5   72.62    5.40
  -5  -9  -5   61.03    5.01
   5  -9  -5   64.79    3.00
  -5  -9   6  652.56   18.49
  -5  -9  -6  665.43   18.59
   5  -9  -6  660.36   13.77
  -5   9   6  673.76   14.00
  -5  -9   7   38.37    4.04
   5  -9  -7   36.28    2.59
  -5  -9  -7   39.83    4.07
  -5   9   7   41.34    2.87
  -5  -9   8  912.50   22.73
   5  -9  -8  858.75   18.13
  -5  -9  -8  901.74   22.83
  -5   9   8  909.29   18.70
  -5  -9   9  140.09    7.84
  -5  -9  -9  140.83    7.81
   5  -9  -9  124.61    5.47
  -5   9   9  129.11    5.68
  -5   9  10    3.12    1.15
  -5   9 -10    2.58    0.50
  -5  -9  10    1.08    0.99
   5  -9 -10    2.91    1.02
  -5  -9 -10    2.57    1.32
  -5   9 -10    1.76    0.44
  -5   9  11    0.88    0.70
  -5  -9 -11    0.04    0.79
  -5  -9  11   -0.14    0.94
   5  -9 -11    0.09    0.83
  -5   9 -11    0.81    0.34
  -5   9 -11    0.33    0.40
  -5   9 -12   75.37    3.51
  -5  -9 -12   73.27    5.60
  -5  -9  12   82.02    5.87
   5  -9 -12   72.87    4.77
  -5   9  12   76.52    4.93
  -5  -9 -13   36.18    4.09
  -5   9 -13   42.16    2.89
  -5  -9  13   39.85    4.14
  -5   9  13   37.39    3.60
  -5  -9 -14  232.89   10.64
  -5  -9  14  243.41   10.77
  -5   9  14  247.19    9.75
  -5   9  15    3.17    1.27
  -5  -9  15    2.49    1.20
  -5   9  16    4.46    1.55
  -5  -9  16    4.06    1.66
  -5  -9  17  134.79    8.13
  -5   9  17  129.02    7.44
  -5  -9  18  407.39   15.02
  -5   9  18  419.18   14.50
  -5   9  19   14.20    2.78
  -5  -9  19   14.52    2.84
  -5  -9  20  195.64   10.28
  -5   9  20  215.04   10.37
  -5   9  21   24.17    3.57
  -5  -9  21   16.73    3.17
  -5  -9  22  171.78   10.00
  -5   9  22  189.69    9.99
  -5  -9  23   94.41    7.44
  -5   9  23  107.68    7.55
  -5  -9  24    0.51    1.12
  -5   9  24    1.28    1.46
  -5  -9  25   17.77    3.34
  -5   9  25   18.86    3.27
  -5  -9  26   20.13    3.61
  -5  -9  27   30.94    4.53
  -5  -9  28  152.76   10.24
  -5  -9  29    8.84    2.60
  -5  -9  30    1.16    1.46
  -5  -9  31   70.58    7.26
  -5  -9  32  284.83   15.32
  -5  -9  33    2.39    2.05
  -5 -10   0    0.00    0.82
  -5 -10   1  107.11    6.73
  -5 -10  -1   98.88    6.50
  -5 -10  -2    4.23    1.43
  -5 -10   2    5.86    1.52
  -5 -10  -3    1.84    1.08
  -5 -10   3    0.13    1.13
   5 -10  -4    0.80    0.27
  -5 -10   4   -0.17    0.84
  -5 -10  -4    0.39    0.94
  -5 -10  -5  190.01    9.15
  -5 -10   5  200.65    9.29
   5 -10  -5  173.04    5.01
  -5 -10  -6   27.37    3.42
  -5 -10   6   41.62    4.18
   5 -10  -6   32.29    2.13
  -5 -10   7  549.64   16.61
   5 -10  -7  520.02   11.79
  -5 -10  -7  540.62   16.57
   5 -10  -8   25.79    2.18
  -5 -10   8   24.83    3.31
  -5 -10  -8   25.27    3.30
   5 -10  -9  267.68    8.44
  -5 -10   9  321.80   12.19
  -5 -10  -9  306.43   12.00
   5 -10 -10    1.01    0.85
  -5 -10  10    1.99    1.50
  -5 -10 -10    0.43    0.88
  -5  10 -11    0.31    0.23
   5 -10 -11    0.35    0.69
  -5 -10  11    0.70    0.91
  -5  10 -11    0.45    0.27
  -5 -10 -11   -1.04    0.99
   5 -10 -12    0.16    0.63
  -5 -10  12   -0.59    1.38
  -5 -10 -12   -0.87    1.02
  -5  10 -12    0.31    0.31
  -5 -10  13  152.42    8.46
  -5 -10 -13  144.64    8.31
  -5 -10  14    5.69    1.73
  -5 -10 -14    7.95    2.31
  -5 -10 -15   11.56    2.50
  -5 -10  15   15.68    2.78
  -5 -10  16   -1.29    1.09
  -5 -10  17   15.20    2.74
  -5 -10  18    0.41    1.11
  -5 -10  19   24.92    3.67
  -5 -10  20   11.04    2.70
  -5 -10  21  349.78   14.40
  -5 -10  22   14.25    2.95
  -5 -10  23  171.22   10.14
  -5 -10  24   -0.73    1.10
  -5 -10  25    2.24    1.75
  -5 -10  26    2.23    1.82
  -5 -10  27   66.02    6.59
  -5 -10  28    3.42    2.07
  -5 -10  29   -0.71    1.60
  -5 -10  30    1.56    1.63
  -5 -10  31    7.08    2.20
  -5 -10  32    6.09    2.35
  -5 -11   0   -0.69    1.37
  -5 -11   1    8.26    1.68
  -5 -11  -1    6.68    1.58
  -5 -11  -2   22.20    3.10
  -5 -11   2   23.73    3.21
  -5 -11  -3   39.73    4.20
  -5 -11   3   35.97    3.98
  -5 -11  -4  256.92   11.15
  -5 -11   4  268.52   11.28
  -5 -11  -5   31.16    3.76
  -5 -11   5   35.36    3.91
   5 -11  -5   29.52    1.64
  -5 -11  -6    4.68    1.53
  -5 -11   6    2.83    1.28
   5 -11  -6    5.50    0.79
  -5 -11   7  365.39   13.30
   5 -11  -7  332.06    8.48
  -5 -11  -7  362.43   13.34
   5 -11  -8    3.28    0.73
  -5 -11   8    4.32    1.94
  -5 -11  -8    6.27    2.04
   5 -11  -9    4.28    1.09
  -5 -11   9    3.91    1.63
  -5 -11  -9    2.24    1.29
  -5 -11  10   94.52    6.54
  -5 -11 -10   73.79    5.87
   5 -11 -10   79.14    4.35
  -5 -11  11  107.71    7.12
  -5 -11 -11  103.69    6.91
   5 -11 -11   98.25    5.19
   5 -11 -12    6.55    1.58
  -5 -11  12    5.11    1.78
  -5  11 -12    4.14    0.56
  -5 -11 -12    3.93    1.52
  -5 -11 -13   59.71    5.33
   5 -11 -13   41.94    3.87
  -5 -11  13   57.74    5.24
  -5 -11  14   20.36    3.17
  -5 -11 -14   18.82    3.08
  -5 -11 -15   48.65    4.88
  -5 -11  15   53.06    5.05
  -5 -11 -16    6.27    1.86
  -5 -11  16    5.78    1.74
  -5 -11  17   14.81    2.80
  -5 -11  18   71.56    6.03
  -5 -11  19  151.95    9.14
  -5 -11  20   46.76    5.07
  -5 -11  21   53.80    5.47
  -5 -11  22    5.48    2.03
  -5 -11  23   32.23    4.42
  -5 -11  24    0.60    0.94
  -5 -11  25   25.05    4.06
  -5 -11  26    2.65    1.38
  -5 -11  27   58.19    6.26
  -5 -11  28    6.05    2.60
  -5 -11  29   41.97    5.58
  -5 -11  30   81.71    7.87
  -5 -11  31   40.91    5.58
  -5 -11  32   21.97    4.26
  -5 -12   0   -0.42    1.07
  -5 -12   1    0.62    0.93
  -5 -12  -1   -0.59    1.20
  -5 -12  -2   20.24    3.11
  -5 -12   2   21.13    3.10
  -5 -12  -3    0.62    0.85
  -5 -12   3    0.77    0.82
  -5 -12  -4    1.60    1.49
  -5 -12   4    1.57    1.07
   5 -12  -5    3.89    0.47
  -5 -12   5    0.98    0.93
  -5 -12  -5    5.33    1.89
  -5 -12   6   92.16    6.53
  -5 -12  -6   95.94    6.72
   5 -12  -6   85.72    3.19
  -5 -12  -7    2.91    1.64
   5 -12  -7    1.36    0.60
  -5 -12   7    2.80    1.53
   5 -12  -8   85.09    3.87
  -5 -12   8   92.62    6.64
  -5 -12  -8  101.01    6.84
  -5 -12   9    4.93    1.72
  -5 -12  -9    2.29    1.23
  -5 -12 -10    5.72    1.80
  -5 -12  10    6.26    1.72
  -5 -12  11    1.53    1.02
  -5 -12 -11    0.95    1.05
  -5 -12  12    4.28    1.65
  -5 -12 -12    4.94    1.70
  -5 -12  13    3.13    1.48
  -5 -12 -13    5.26    1.90
  -5 -12  14    7.97    1.95
  -5 -12 -14    8.17    1.89
  -5 -12  15   13.06    2.65
  -5 -12 -15   13.12    2.59
  -5 -12 -16    4.43    1.80
  -5 -12  16    6.03    1.99
  -5 -12  17   11.63    2.68
  -5 -12 -17   15.29    2.97
  -5 -12  18    9.73    2.70
  -5 -12  19    1.32    1.45
  -5 -12  20   53.99    5.47
  -5 -12  21   -0.28    1.25
  -5 -12  22   51.52    5.55
  -5 -12  23    7.39    2.44
  -5 -12  24    2.11    1.33
  -5 -12  25    8.25    2.52
  -5 -12  26    2.95    1.63
  -5 -12  27   15.86    3.43
  -5 -12  28   10.84    3.03
  -5 -12  29   13.51    3.38
  -5 -12  30    1.14    1.31
  -5 -12  31    4.33    1.90
  -5 -13   0   -1.11    1.25
  -5 -13   1   15.52    2.82
  -5 -13  -1    7.46    1.86
  -5 -13   2   85.47    6.46
  -5 -13  -2   77.90    6.18
  -5 -13  -3   48.39    4.89
  -5 -13   3   46.82    4.82
  -5 -13  -4   19.89    3.02
  -5 -13   4   20.91    3.13
  -5 -13  -5   80.03    6.20
  -5 -13   5   88.35    6.47
  -5 -13   6  127.04    7.84
  -5 -13  -6  119.79    7.66
  -5 -13  -7   18.67    3.22
  -5 -13   7   13.37    2.61
  -5 -13  -8    3.67    1.53
  -5 -13   8    0.35    1.04
  -5 -13   9    4.05    1.70
  -5 -13  -9    4.80    2.01
  -5 -13  10  159.19    8.97
  -5 -13 -10  147.60    8.66
  -5 -13  11   57.44    5.30
  -5 -13 -11   68.16    5.82
  -5 -13  12    2.15    1.22
  -5 -13 -12    3.06    1.71
  -5 -13  13    4.77    1.70
  -5 -13 -13    5.41    1.75
  -5 -13  14    0.02    1.05
  -5 -13 -14    0.33    1.07
  -5 -13  15    3.45    1.57
  -5 -13 -15    2.22    1.02
  -5 -13 -16   40.30    4.64
  -5 -13  16   43.89    4.84
  -5 -13 -17   21.27    3.54
  -5 -13  17   30.21    4.01
  -5 -13 -18    0.89    1.06
  -5 -13  18    4.14    1.74
  -5 -13  19  110.19    7.94
  -5 -13  20  230.07   11.69
  -5 -13  21   11.80    2.77
  -5 -13  22   56.23    5.83
  -5 -13  23   36.31    4.83
  -5 -13  24  148.31    9.86
  -5 -13  25    5.86    2.12
  -5 -13  26   13.42    3.11
  -5 -13  27   10.38    3.02
  -5 -13  28   12.44    3.13
  -5 -13  29   23.90    4.22
  -5 -13  30    2.31    1.53
  -5 -14   0   -0.64    1.37
  -5 -14   1   -0.22    0.89
  -5 -14  -1    0.82    1.03
  -5 -14   2   53.78    5.29
  -5 -14  -2   55.76    5.37
  -5 -14  -3    7.10    2.32
  -5 -14   3    6.47    2.07
  -5 -14  -4    0.07    0.89
  -5 -14   4    0.94    1.12
  -5 -14  -5   50.56    5.08
  -5 -14   5   52.68    5.04
  -5 -14  -6   43.31    4.67
  -5 -14   6   41.67    4.41
  -5 -14   7  115.85    7.64
  -5 -14  -7  102.59    7.24
  -5 -14  -8   12.85    2.68
  -5 -14   8    8.25    2.16
  -5 -14   9   47.65    4.88
  -5 -14  -9   41.32    4.60
  -5 -14  10    3.39    1.76
  -5 -14 -10   -1.15    1.44
  -5 -14 -11    5.03    1.69
  -5 -14  11    2.83    1.35
  -5 -14  12    1.55    1.50
  -5 -14 -12    1.06    0.95
  -5 -14  13    2.94    1.61
  -5 -14 -13    2.63    1.49
  -5 -14  14   -0.37    1.13
  -5 -14 -14   -1.40    1.44
  -5 -14  15    2.53    1.55
  -5 -14 -15    4.93    1.47
  -5 -14 -16   25.38    3.87
  -5 -14  16   36.12    4.39
  -5 -14 -17   -1.30    1.18
  -5 -14  17    2.65    1.74
  -5 -14 -18    6.82    1.97
  -5 -14  18    7.58    2.24
  -5 -14 -19   18.07    3.36
  -5 -14  19   21.85    3.66
  -5 -14  20   19.86    3.48
  -5 -14  21   32.43    4.38
  -5 -14  22    3.56    1.75
  -5 -14  23   14.62    3.29
  -5 -14  24    3.10    1.84
  -5 -14  25    5.45    2.23
  -5 -14  26    7.73    2.39
  -5 -14  27    1.57    1.53
  -5 -14  28    7.17    2.62
  -5 -14  29   12.38    3.32
  -5 -15   0   -2.59    2.14
  -5 -15   1   97.31    7.19
  -5 -15  -1   90.01    7.04
  -5 -15   2   53.65    5.36
  -5 -15  -2   49.90    5.15
  -5 -15   3  183.34    9.83
  -5 -15  -3  177.68    9.88
  -5 -15  -4    6.91    2.13
  -5 -15   4    6.52    1.90
  -5 -15  -5   56.48    5.59
  -5 -15   5   59.65    5.61
  -5 -15  -6  196.86   10.40
  -5 -15   6  195.93   10.23
  -5 -15  -7   45.56    5.07
  -5 -15   7   38.38    4.49
  -5 -15   8   85.68    6.64
  -5 -15  -8   91.33    7.05
  -5 -15   9   66.55    5.84
  -5 -15  -9   70.27    6.06
  -5 -15  10    1.25    1.39
  -5 -15 -10   -0.79    1.01
  -5 -15  11   70.29    6.19
  -5 -15 -11   60.89    5.67
  -5 -15  12   42.04    4.84
  -5 -15 -12   38.32    4.51
  -5 -15  13   33.37    4.29
  -5 -15 -13   24.92    3.77
  -5 -15  14    0.40    1.02
  -5 -15 -14    4.32    1.92
  -5 -15  15   17.16    3.18
  -5 -15 -15   20.58    3.43
  -5 -15  16   35.66    4.55
  -5 -15 -16   26.79    4.05
  -5 -15  17   93.75    7.30
  -5 -15 -17   80.86    7.17
  -5 -15 -18   44.49    5.27
  -5 -15  18   43.74    5.28
  -5 -15 -19  116.17    8.63
  -5 -15  19  128.72    8.81
  -5 -15 -20  134.24    9.50
  -5 -15  20  148.26    9.56
  -5 -15  21   38.50    4.99
  -5 -15  22    0.45    1.57
  -5 -15  23  193.91   11.35
  -5 -15  24    3.28    1.99
  -5 -15  25   28.14    4.50
  -5 -15  26   21.16    3.85
  -5 -15  27   13.20    3.16
  -5 -15  28    2.56    1.74
  -5 -16   0   -1.47    1.74
  -5 -16  -1   21.68    3.48
  -5 -16   1   31.91    4.05
  -5 -16  -2   51.34    5.33
  -5 -16   2   42.42    4.77
  -5 -16  -3   16.84    2.88
  -5 -16   3   20.08    3.44
  -5 -16  -4   29.73    4.13
  -5 -16   4   24.50    3.66
  -5 -16  -5   60.20    5.83
  -5 -16   5   47.40    5.05
  -5 -16  -6  172.15    9.96
  -5 -16   6  153.78    9.29
  -5 -16   7  227.73   11.38
  -5 -16  -7  225.23   11.50
  -5 -16   8  122.22    8.16
  -5 -16  -8  126.38    8.48
  -5 -16   9   67.74    6.14
  -5 -16  -9   66.18    6.00
  -5 -16  10   27.88    4.06
  -5 -16 -10   37.62    4.50
  -5 -16  11   10.80    2.53
  -5 -16 -11    9.96    2.68
  -5 -16  12   28.40    3.97
  -5 -16 -12   24.81    3.78
  -5 -16 -13   43.54    5.11
  -5 -16  13   40.46    4.78
  -5 -16  14    4.51    1.92
  -5 -16 -14    5.67    1.93
  -5 -16  15   17.27    3.35
  -5 -16 -15   17.69    3.48
  -5 -16  16    9.69    2.67
  -5 -16 -16    8.97    2.44
  -5 -16 -17   18.76    3.43
  -5 -16  17   19.73    3.37
  -5 -16 -18    6.18    2.23
  -5 -16  18    2.14    1.72
  -5 -16 -19   23.39    3.98
  -5 -16  19   31.67    4.49
  -5 -16 -20   77.37    7.25
  -5 -16  20   69.48    6.76
  -5 -16 -21  115.65    9.08
  -5 -16  21  118.24    8.73
  -5 -16  22  139.31    9.56
  -5 -16 -22  135.90   10.03
  -5 -16  23   35.48    5.04
  -5 -16  24   18.74    3.86
  -5 -16  25    0.49    1.10
  -5 -16  26    8.56    2.65
  -5 -16  27   11.18    3.12
  -5 -17   0   -0.83    1.65
  -5 -17  -1   36.42    4.68
  -5 -17   1   37.15    4.45
  -5 -17   2  229.17   11.81
  -5 -17  -2  241.69   12.01
  -5 -17  -3    5.26    1.73
  -5 -17   3    4.64    1.42
  -5 -17  -4    4.34    1.52
  -5 -17   4    6.80    1.89
  -5 -17  -5   68.69    6.34
  -5 -17   5   71.70    6.48
  -5 -17   6   11.55    2.86
  -5 -17  -6   13.36    3.19
  -5 -17   7  761.31   23.05
  -5 -17  -7  749.48   23.07
  -5 -17  -8    3.23    2.21
  -5 -17   8    3.56    2.03
  -5 -17   9   83.76    6.95
  -5 -17  -9   86.12    7.04
  -5 -17  10   56.55    5.71
  -5 -17 -10   70.32    6.25
  -5 -17  11    1.82    1.40
  -5 -17 -11   -0.63    1.24
  -5 -17  12  149.81    9.41
  -5 -17 -12  137.75    9.13
  -5 -17  13   13.80    2.87
  -5 -17 -13   15.86    3.37
  -5 -17  14   11.39    2.58
  -5 -17 -14   11.43    2.51
  -5 -17  15    1.80    1.47
  -5 -17 -15    0.44    1.00
  -5 -17 -16   90.24    7.53
  -5 -17  16   88.73    7.25
  -5 -17 -17   48.13    5.74
  -5 -17  17   57.47    5.93
  -5 -17 -18    4.40    2.37
  -5 -17  18    5.74    2.14
  -5 -17 -19  133.62    9.51
  -5 -17  19  125.95    9.08
  -5 -17  20   15.05    3.42
  -5 -17 -20   12.18    3.52
  -5 -17 -21  212.39   12.56
  -5 -17  21  218.08   12.07
  -5 -17 -22   23.16    4.29
  -5 -17  22   22.53    3.88
  -5 -17 -23   78.47    7.75
  -5 -17  23   69.64    6.96
  -5 -17  24   95.32    8.16
  -5 -17  25   11.93    3.13
  -5 -17  26   31.21    4.78
  -5 -18   0   -0.10    1.38
  -5 -18  -1    0.96    1.43
  -5 -18   1   -2.79    2.07
  -5 -18  -2   34.40    4.52
  -5 -18   2   24.03    3.71
  -5 -18  -3   12.43    2.81
  -5 -18   3    7.98    2.29
  -5 -18  -4    2.64    1.23
  -5 -18   4   -1.09    1.72
  -5 -18  -5   15.13    3.17
  -5 -18   5   16.42    3.24
  -5 -18  -6  143.65    9.39
  -5 -18   6  151.75    9.57
  -5 -18   7   39.07    4.98
  -5 -18  -7   34.67    4.57
  -5 -18   8  152.51    9.61
  -5 -18  -8  152.68    9.58
  -5 -18  -9   23.05    3.86
  -5 -18   9   22.17    3.80
  -5 -18 -10    0.29    1.29
  -5 -18  10   -1.48    1.36
  -5 -18  11    1.14    1.60
  -5 -18 -11    0.52    1.21
  -5 -18  12   36.85    4.67
  -5 -18 -12   34.67    4.56
  -5 -18  13   -0.62    1.55
  -5 -18 -13   -1.52    1.53
  -5 -18 -14    1.56    1.61
  -5 -18  14   -0.98    1.55
  -5 -18  15    1.05    1.18
  -5 -18 -15    3.58    1.95
  -5 -18  16    3.87    2.11
  -5 -18 -16    8.85    2.58
  -5 -18 -17   18.12    3.61
  -5 -18  17   12.82    2.77
  -5 -18 -18    9.00    2.82
  -5 -18  18    2.65    1.81
  -5 -18 -19    3.27    1.91
  -5 -18  19    2.89    1.94
  -5 -18 -20   43.75    5.67
  -5 -18  20   45.46    5.52
  -5 -18 -21   15.18    3.66
  -5 -18  21   20.60    3.99
  -5 -18 -22   63.81    7.07
  -5 -18  22   58.36    6.36
  -5 -18 -23    0.44    1.70
  -5 -18  23    2.96    1.69
  -5 -18 -24    0.78    1.18
  -5 -18  24    0.98    1.47
  -5 -18 -25    3.19    2.47
  -5 -18  25    1.04    1.26
  -5 -19   0   -1.73    1.90
  -5 -19  -1   29.61    4.12
  -5 -19   1   35.57    4.78
  -5 -19  -2    1.36    1.13
  -5 -19   2   -2.12    1.85
  -5 -19   3   87.95    7.42
  -5 -19  -3   85.61    7.44
  -5 -19  -4   26.08    3.97
  -5 -19   4   39.52    5.00
  -5 -19  -5   26.70    4.22
  -5 -19   5   29.15    4.35
  -5 -19  -6  554.68   20.03
  -5 -19   6  566.08   20.10
  -5 -19   7   17.74    3.82
  -5 -19  -7   16.12    3.96
  -5 -19   8  543.29   19.71
  -5 -19  -8  541.23   19.63
  -5 -19   9   33.32    4.55
  -5 -19  -9   29.73    4.56
  -5 -19 -10   15.49    3.42
  -5 -19  10   17.76    3.47
  -5 -19  11  245.62   12.57
  -5 -19 -11  204.81   11.58
  -5 -19  12   10.66    2.97
  -5 -19 -12    4.55    2.33
  -5 -19  13    1.06    1.47
  -5 -19 -13    3.20    2.01
  -5 -19  14   14.10    3.02
  -5 -19 -14    9.90    2.79
  -5 -19  15  184.67   10.86
  -5 -19 -15  148.06   10.07
  -5 -19  16   -1.26    1.62
  -5 -19 -16   -1.35    1.21
  -5 -19 -17    3.92    2.11
  -5 -19  17    0.58    1.37
  -5 -19 -18   84.58    7.74
  -5 -19  18   99.81    8.18
  -5 -19 -19    4.04    2.77
  -5 -19  19    6.15    2.51
  -5 -19 -20  219.63   12.99
  -5 -19  20  229.81   12.89
  -5 -19 -21   26.19    4.80
  -5 -19  21   32.46    4.79
  -5 -19  22  181.15   11.31
  -5 -19 -22  142.94   10.73
  -5 -19  23   11.45    3.23
  -5 -19 -23   11.94    3.45
  -5 -19  24   13.27    3.35
  -5 -20   0   -0.65    1.21
  -5 -20  -1    0.34    1.49
  -5 -20   1   -0.73    1.23
  -5 -20  -2    5.16    2.00
  -5 -20   2    4.60    2.04
  -5 -20  -3   -0.97    1.63
  -5 -20   3   -1.44    1.47
  -5 -20  -4    1.61    1.24
  -5 -20   4    3.17    1.74
  -5 -20  -5    4.82    2.05
  -5 -20   5    4.03    1.92
  -5 -20  -6   10.07    2.87
  -5 -20   6   11.05    2.96
  -5 -20   7    1.11    1.83
  -5 -20  -7    3.27    1.53
  -5 -20   8   10.38    2.96
  -5 -20  -8    7.26    2.50
  -5 -20   9    2.51    1.31
  -5 -20  -9    4.63    1.98
  -5 -20  10    3.88    2.15
  -5 -20 -10    5.02    1.89
  -5 -20 -11   14.72    3.11
  -5 -20  11   12.37    2.98
  -5 -20  12   -0.12    1.31
  -5 -20 -12   -0.25    1.15
  -5 -20  13   -0.16    1.08
  -5 -20 -13    0.82    1.04
  -5 -20  14    2.63    1.60
  -5 -20 -14    3.91    2.13
  -5 -20  15    0.53    1.12
  -5 -20 -15    2.76    1.98
  -5 -20  16   12.75    3.22
  -5 -20 -16   12.73    3.16
  -5 -20 -17    6.72    2.35
  -5 -20  17    5.06    2.26
  -5 -20 -18    4.93    1.83
  -5 -20  18    6.16    2.27
  -5 -20 -19   -0.38    1.21
  -5 -20  19    0.55    1.40
  -5 -20 -20    5.13    2.52
  -5 -20  20    4.40    2.42
  -5 -20  21   -1.13    1.49
  -5 -20 -21    2.69    2.39
  -5 -20 -22    0.29    1.71
  -5 -20  22    1.47    1.46
  -5 -21   0   -1.34    2.16
  -5 -21   1   74.32    7.07
  -5 -21  -1   72.38    6.96
  -5 -21  -2   30.83    4.58
  -5 -21   2   34.58    4.94
  -5 -21  -3    3.01    2.01
  -5 -21   3    0.82    1.40
  -5 -21   4   71.92    6.95
  -5 -21  -4   71.19    7.10
  -5 -21   5  246.89   13.23
  -5 -21  -5  216.00   12.53
  -5 -21  -6   28.05    4.61
  -5 -21   6   25.41    4.31
  -5 -21  -7  159.32   10.60
  -5 -21   7  163.91   10.57
  -5 -21   8   10.97    3.05
  -5 -21  -8    9.90    2.78
  -5 -21  -9  105.16    8.51
  -5 -21   9  111.66    8.64
  -5 -21  10  110.48    8.75
  -5 -21 -10  100.01    8.34
  -5 -21 -11   -0.05    1.51
  -5 -21  11    0.20    1.17
  -5 -21 -12   30.58    4.64
  -5 -21  12   33.22    4.67
  -5 -21  13   10.41    2.90
  -5 -21 -13    9.94    2.95
  -5 -21 -14   83.88    7.59
  -5 -21  14   88.60    7.82
  -5 -21 -15   49.18    5.94
  -5 -21  15   49.48    5.81
  -5 -21  16   31.38    4.76
  -5 -21 -16   27.44    4.70
  -5 -21 -17   10.90    3.02
  -5 -21  17    8.91    2.62
  -5 -21 -18    3.54    2.35
  -5 -21  18    3.07    1.70
  -5 -21 -19  114.79    9.41
  -5 -21  19  118.13    9.28
  -5 -21 -20   50.56    6.39
  -5 -21  20   51.53    6.15
  -5 -21  21   96.10    8.46
  -5 -22   0   -1.46    1.75
  -5 -22   1    1.73    1.61
  -5 -22  -1   -0.84    2.09
  -5 -22  -2   13.53    3.21
  -5 -22   2    8.80    2.69
  -5 -22  -3    9.32    2.49
  -5 -22   3   15.13    3.13
  -5 -22  -4   10.87    2.78
  -5 -22   4   10.27    2.88
  -5 -22  -5    8.48    2.62
  -5 -22   5    7.72    2.69
  -5 -22   6  113.81    8.93
  -5 -22  -6   91.28    8.26
  -5 -22   7    8.48    2.82
  -5 -22  -7    3.39    2.15
  -5 -22  -8  145.68   10.15
  -5 -22   8  147.56   10.16
  -5 -22   9    4.47    2.24
  -5 -22  -9    1.84    1.96
  -5 -22  10   28.56    4.53
  -5 -22 -10   24.24    4.14
  -5 -22  11    9.77    2.92
  -5 -22 -11    8.83    2.74
  -5 -22 -12   15.52    3.50
  -5 -22  12    9.17    2.72
  -5 -22 -13   -0.47    1.19
  -5 -22  13    0.83    1.21
  -5 -22  14    7.36    2.35
  -5 -22 -14    5.96    2.40
  -5 -22  15    1.43    1.34
  -5 -22 -15    1.41    1.44
  -5 -22  16    0.60    1.18
  -5 -22 -16    0.47    1.15
  -5 -22 -17    8.73    2.37
  -5 -22  17    7.58    2.66
  -5 -22 -18   -0.02    1.47
  -5 -22  18    2.08    1.83
  -5 -22  19    1.83    1.74
  -5 -23   0   -1.23    1.58
  -5 -23   1    7.38    2.33
  -5 -23  -1    5.03    1.72
  -5 -23   2   70.89    7.18
  -5 -23  -2   64.74    6.84
  -5 -23   3   86.44    7.93
  -5 -23  -3   71.90    7.21
  -5 -23  -4   33.17    5.05
  -5 -23   4   31.52    4.91
  -5 -23  -5   12.91    3.00
  -5 -23   5   14.87    3.55
  -5 -23  -6   32.16    5.04
  -5 -23   6   40.05    5.51
  -5 -23  -7    3.35    2.12
  -5 -23   7    2.88    2.10
  -5 -23   8    3.06    2.15
  -5 -23  -8    4.46    2.19
  -5 -23   9   49.85    6.00
  -5 -23  -9   47.29    6.02
  -5 -23  10    0.51    1.42
  -5 -23 -10    1.78    1.83
  -5 -23  11   25.09    4.20
  -5 -23 -11   30.46    4.87
  -5 -23  12   10.38    2.75
  -5 -23 -12    6.06    2.60
  -5 -23 -13    2.83    1.70
  -5 -23  13    1.56    1.71
  -5 -23 -14    8.61    2.75
  -5 -23  14    5.67    2.29
  -5 -23  15   18.47    3.91
  -5 -23 -15   24.16    4.29
  -5 -23  16   36.95    5.35
  -5 -24   0   -0.25    1.33
  -5 -24   1   -0.49    1.36
  -5 -24  -1   -1.79    1.60
  -5 -24   2    2.23    1.54
  -5 -24  -2    5.25    2.37
  -5 -24  -3   -1.02    1.76
  -5 -24   3    1.44    1.51
  -5 -24  -4   -1.63    1.97
  -5 -24   4    1.49    1.40
  -5 -24  -5   18.51    3.68
  -5 -24   5   20.60    4.05
  -5 -24  -6    1.14    1.44
  -5 -24   6    7.76    3.01
  -5 -24   7   97.75    8.57
  -5 -24  -7  103.65    8.79
  -5 -24   8    8.68    2.78
  -5 -24  -8    6.48    2.36
  -5 -24   9   61.89    6.82
  -5 -24  -9   49.69    6.14
  -5 -24  10    0.22    1.90
  -5 -24 -10    1.39    2.02
  -5 -24  11    3.66    2.42
  -5 -24 -11    1.48    1.13
  -5 -24  12    7.29    2.58
  -5 -24 -12    9.52    3.13
  -5 -24  13    4.73    2.05
  -5 -24  14   -0.81    2.07
  -5 -25   0   -0.09    1.48
  -5 -25   1   19.95    4.10
  -5 -25  -1   20.76    4.06
  -5 -25   2   64.01    7.02
  -5 -25  -2   59.48    6.78
  -5 -25  -3   24.69    4.42
  -5 -25   3   22.95    4.29
  -5 -25  -4   15.06    3.43
  -5 -25   4   18.07    3.82
  -5 -25  -5    1.50    1.68
  -5 -25   5    2.46    1.54
  -5 -25  -6    9.85    2.90
  -5 -25   6   13.53    3.37
  -5 -25  -7    4.62    1.93
  -5 -25   7    7.95    2.87
  -5 -25   8   -1.08    1.84
  -5 -25  -8   -1.04    1.43
  -5 -25   9   11.93    3.31
  -5 -25  -9    4.45    2.06
  -5 -25  10   16.63    3.58
  -5 -26   0   -0.06    1.31
  -5 -26   1   -1.96    1.51
  -5 -26  -1    4.77    2.07
  -5 -26   2   -1.84    2.00
  -6   0   0 1527.70   30.00
  -6   0   1    1.86    1.01
  -6   0  -1    1.87    1.24
  -6   0   2 1027.01   22.36
  -6   0  -2 1027.24   22.22
  -6   0   3    1.59    1.19
  -6   0  -3   -0.76    1.07
  -6   0  -4   85.91    4.97
  -6   0   4   84.96    5.06
  -6   0   5   -0.44    0.71
  -6   0  -5   -0.84    1.11
  -6   0  -6  221.76    8.47
  -6   0   6  232.30    8.78
  -6   0  -7   -0.43    0.58
  -6   0   7    0.20    0.62
  -6   0  -8  229.63    8.77
  -6   0   8  237.85    9.15
  -6   0  -9   -0.56    0.90
  -6   0   9   -0.06    0.66
  -6   0  10    2.53    1.32
  -6   0 -10    0.58    0.90
  -6   0 -11    0.99    1.07
  -6   0  11    1.51    1.14
  -6   0 -12  680.97   17.83
  -6   0  12  708.66   18.54
  -6   0 -13    4.52    1.85
  -6   0  13    2.92    1.62
  -6   0 -14 1169.24   26.42
  -6   0  14 1194.44   27.19
  -6   0  15    4.59    2.09
  -6   0  16  560.10   17.20
  -6   0  17    1.84    1.56
  -6   0  18   89.30    6.43
  -6   0  19    1.90    0.90
  -6   0  20   64.00    5.67
  -6   0  21    0.44    1.02
  -6   0  22   52.37    5.40
  -6   0  23   -1.54    1.78
  -6   0  24   25.07    3.91
  -6   0  25   -1.36    1.55
  -6   0  26  234.00   12.79
  -6   0  27    1.99    2.33
  -6   0  28  341.29   16.29
  -6   0  29    1.97    1.61
  -6   0  30  191.37   12.47
  -6   0  31   -0.18    1.26
  -6   0  32   20.33    4.19
  -6   0  33   -3.82    2.94
  -6   0  34    2.15    1.72
  -6   1   0  858.96   19.20
  -6  -1   0  851.64   19.87
  -6   1   1  307.27    9.80
  -6  -1   1  285.52   10.00
  -6   1  -1  311.59    9.79
  -6  -1  -1  308.60   10.33
  -6   1   2  357.67   10.87
  -6  -1   2  346.06   11.15
  -6   1  -2  348.50   10.53
  -6  -1  -2  328.36   10.92
  -6  -1   3  154.90    7.12
  -6   1  -3  162.88    6.75
  -6  -1  -3  153.38    7.04
  -6   1   3  155.57    6.74
  -6   1  -4    1.20    0.86
  -6   1   4    3.47    1.10
  -6  -1  -4   -0.62    1.32
  -6  -1   4    2.63    1.02
  -6  -1   5   21.67    2.69
  -6   1  -5   22.70    2.41
  -6  -1  -5   22.25    2.49
  -6   1   5   25.72    2.71
  -6  -1  -6   71.67    4.73
  -6   1   6   72.37    4.61
  -6  -1   6   65.50    4.64
  -6   1  -6   67.97    4.28
  -6  -1   7    3.72    1.23
  -6   1  -7    4.88    1.36
  -6  -1  -7    4.49    1.33
  -6   1   7    5.13    1.19
  -6   1  -8   81.77    4.86
  -6  -1  -8   83.99    5.21
  -6   1   8   79.93    5.00
  -6  -1   8   78.45    5.18
  -6   1  -9   87.76    5.09
  -6   1   9   88.61    5.35
  -6  -1  -9   90.18    5.42
  -6  -1   9   95.95    5.79
  -6   1  10    1.98    0.87
  -6   1 -10    3.92    1.32
  -6  -1  10    4.31    1.16
  -6  -1 -10    2.91    1.06
  -6   1 -11   69.56    4.65
  -6  -1 -11   75.36    5.10
  -6   1  11   73.76    5.08
  -6  -1  11   75.46    5.25
  -6   1 -12  364.36   11.70
  -6  -1 -12  355.86   12.10
  -6   1  12  356.73   12.17
  -6  -1  12  361.15   12.46
  -6   1  13  640.65   17.47
  -6  -1  13  609.73   17.32
  -6  -1 -13  583.74   16.85
  -6   1 -13  612.93   16.50
  -6  -1 -14  573.32   16.70
  -6   1 -14  571.09   16.06
  -6   1  14  587.31   17.00
  -6  -1  14  578.95   17.10
  -6   1  15   80.77    5.81
  -6  -1  15   78.00    5.79
  -6   1  16   93.12    6.31
  -6  -1  16   93.60    6.43
  -6   1  17   16.57    2.85
  -6  -1  17   13.90    2.63
  -6   1  18    1.05    0.94
  -6  -1  18    5.54    1.87
  -6  -1  19   36.09    4.30
  -6   1  19   34.45    4.10
  -6   1  20    3.75    1.62
  -6  -1  20    5.04    1.66
  -6   1  21    3.33    1.68
  -6  -1  21    2.82    1.58
  -6   1  22   18.47    3.14
  -6  -1  22   16.71    2.99
  -6   1  23   -0.97    1.63
  -6  -1  23    1.93    1.30
  -6   1  24   30.86    4.43
  -6  -1  24   40.87    4.92
  -6   1  25    1.13    1.13
  -6  -1  25    1.86    1.18
  -6   1  26  147.18   10.02
  -6  -1  26  160.14   10.42
  -6   1  27  214.66   12.58
  -6  -1  27  209.56   12.20
  -6   1  28  169.09   11.31
  -6  -1  28  165.81   11.13
  -6   1  29   47.87    6.11
  -6  -1  29   33.11    5.14
  -6   1  30    9.10    2.82
  -6  -1  30    8.97    2.56
  -6   1  31    2.17    1.61
  -6  -1  31   -0.85    1.65
  -6   1  32   -2.33    2.19
  -6  -1  32   -3.15    2.37
  -6   1  33   32.24    5.06
  -6  -1  33   24.79    4.66
  -6   1  34    1.13    1.45
  -6  -1  34   -0.91    2.08
  -6   2   0   37.56    3.04
  -6  -2   0   37.88    3.63
  -6   2   1  981.92   20.54
  -6   2  -1  970.72   20.32
  -6  -2   1  935.01   21.84
  -6  -2  -1  934.98   21.88
  -6  -2   2  129.77    6.57
  -6   2  -2  136.32    5.82
  -6  -2  -2  129.55    6.57
   6  -2  -2  114.65    5.97
  -6   2   2  121.12    5.66
  -6  -2  -3   27.05    2.89
  -6  -2   3   34.48    3.35
   6  -2  -3   32.31    3.11
  -6   2  -3   42.23    3.11
  -6   2   3   32.04    2.80
  -6  -2  -4   -1.13    1.57
  -6  -2   4    0.31    0.79
  -6   2  -4    0.47    0.86
   6  -2  -4    0.29    0.58
  -6   2   4    0.18    0.87
  -6  -2  -5  157.76    7.33
  -6  -2   5  151.41    7.39
  -6   2  -5  153.79    6.44
  -6   2   5  164.59    6.84
  -6  -2  -6   31.77    3.24
  -6   2   6   38.75    3.26
  -6   2  -6   37.65    2.99
  -6  -2   6   31.53    3.29
  -6  -2   7   10.73    1.91
  -6   2  -7    5.62    1.28
  -6   2   7    8.19    1.51
  -6  -2  -7    7.61    1.69
  -6  -2   8   20.92    2.66
  -6  -2  -8   17.42    2.47
  -6   2   8   16.57    2.34
  -6   2  -8   19.65    2.27
  -6   2  -9   95.73    5.15
  -6   2   9  106.97    5.77
  -6  -2  -9   93.32    5.73
  -6  -2   9   93.67    5.79
  -6   2  10   45.28    3.85
  -6   2 -10   43.07    3.43
  -6  -2  10   38.83    3.80
  -6  -2 -10   40.94    3.86
  -6   2 -11  117.92    5.95
  -6  -2 -11  112.42    6.45
  -6   2  11  117.92    6.36
  -6  -2  11  127.15    6.99
  -6   2 -12   65.55    4.49
  -6  -2 -12   65.86    5.03
  -6   2  12   83.92    5.52
  -6  -2  12   71.98    5.27
  -6   2  13  679.72   18.33
  -6  -2  13  683.55   18.71
  -6  -2 -13  667.21   18.48
  -6   2 -13  671.26   17.24
  -6   2 -14   28.88    3.27
  -6  -2 -14   25.16    3.30
  -6   2  14   28.39    3.43
  -6  -2  14   27.17    3.51
  -6  -2 -15  466.98   15.34
  -6   2  15  497.28   15.54
  -6  -2  15  490.73   15.65
  -6   2  16   95.66    6.41
  -6  -2  16   91.39    6.42
  -6   2  17    5.58    2.31
  -6  -2  17    7.52    2.21
  -6   2  18    9.31    2.00
  -6  -2  18   10.15    2.52
  -6   2  19   57.39    5.36
  -6  -2  19   69.42    5.74
  -6   2  20   14.13    2.84
  -6  -2  20   13.48    2.88
  -6   2  21   16.76    3.08
  -6  -2  21   14.95    2.99
  -6   2  22   -1.75    1.48
  -6  -2  22   -0.31    1.05
  -6   2  23    5.81    1.90
  -6  -2  23   10.24    2.56
  -6   2  24   60.40    6.29
  -6  -2  24   56.28    5.84
  -6   2  25  111.83    8.67
  -6  -2  25  116.04    8.57
  -6   2  26   15.68    3.46
  -6  -2  26   15.04    3.13
  -6   2  27  238.44   13.41
  -6  -2  27  236.94   13.03
  -6   2  28   14.51    3.36
  -6  -2  28   11.64    3.03
  -6   2  29   98.60    8.54
  -6  -2  29   84.03    7.92
  -6   2  30   19.32    3.75
  -6  -2  30   20.50    4.06
  -6   2  31    1.01    1.48
  -6  -2  31   -3.96    2.84
  -6   2  32   10.53    2.93
  -6  -2  32   15.86    3.62
  -6   2  33   -1.01    1.63
  -6  -2  33   -1.11    2.17
  -6   2  34    2.26    1.25
  -6  -2  34   -0.73    2.24
  -6   2  35    7.24    2.75
  -6   3   0   38.60    2.93
  -6  -3   0   39.12    3.69
  -6   3  -1  381.12   10.48
  -6  -3   1  382.61   12.35
  -6  -3  -1  376.62   12.34
  -6   3   1  402.17   10.75
   6  -3  -2   41.37    3.36
  -6   3  -2   43.17    3.09
  -6  -3   2   44.42    3.91
  -6  -3  -2   45.58    3.95
  -6   3   2   47.82    3.28
  -6  -3   3   34.50    3.40
  -6   3  -3   37.05    2.81
   6  -3  -3   25.97    2.71
  -6  -3  -3   31.76    3.30
  -6   3   3   31.18    2.70
  -6  -3  -4   10.68    1.80
  -6  -3   4   11.86    2.06
  -6   3  -4   10.58    1.42
  -6   3   4   12.68    1.81
   6  -3  -4   11.35    1.76
  -6  -3   5    9.38    1.97
   6  -3  -5    8.88    1.55
  -6  -3  -5    9.08    1.82
  -6   3   5   12.08    1.71
  -6   3  -5    9.30    1.43
  -6  -3  -6   31.90    3.43
  -6  -3   6   27.36    3.04
  -6   3   6   26.65    2.57
  -6   3  -6   31.41    2.65
   6  -3  -6   21.92    2.68
  -6  -3  -7   36.02    3.56
  -6   3   7   36.27    3.09
  -6  -3   7   35.26    3.58
  -6   3  -7   32.46    2.75
  -6   3  -8   58.99    3.84
  -6  -3  -8   63.61    4.71
  -6   3   8   65.59    4.36
  -6  -3   8   64.65    4.77
  -6  -3   9    8.62    1.86
  -6   3  -9    9.62    1.58
  -6  -3  -9    7.58    1.77
  -6   3   9   11.24    1.91
  -6   3 -10    1.58    0.78
  -6   3  10    0.75    0.96
  -6  -3 -10    1.94    1.03
  -6  -3  10    1.02    0.97
  -6  -3 -11   28.85    3.32
  -6   3  11   30.79    3.15
  -6  -3  11   25.45    3.27
  -6   3 -11   28.71    2.80
  -6   3 -12   96.55    5.25
  -6   3  12   97.80    5.85
  -6  -3 -12   85.93    5.76
  -6  -3  12  100.73    6.40
  -6   3  13  203.48    8.95
  -6  -3 -13  179.03    8.75
  -6   3 -13  207.05    8.14
  -6  -3  13  205.85    9.36
  -6   3 -14   47.86    3.86
  -6   3  14   52.36    4.48
  -6  -3  14   53.00    4.68
  -6  -3 -14   53.03    4.77
  -6   3  15  235.31   10.15
  -6  -3 -15  229.63   10.29
  -6  -3  15  231.99   10.33
  -6   3  16    0.68    0.96
  -6  -3  16   -0.32    0.86
  -6   3  17   25.82    3.50
  -6  -3  17   24.83    3.43
  -6   3  18   40.28    4.41
  -6  -3  18   42.33    4.52
  -6   3  19   33.04    4.19
  -6  -3  19   37.38    4.34
  -6   3  20   12.69    2.65
  -6  -3  20   12.58    2.85
  -6   3  21   34.38    4.40
  -6  -3  21   41.13    4.75
  -6   3  22   30.90    4.24
  -6  -3  22   38.30    4.61
  -6   3  23   -0.38    1.36
  -6  -3  23    3.52    1.48
  -6   3  24    0.00    1.40
  -6  -3  24    0.09    0.95
  -6   3  25  124.33    9.13
  -6  -3  25  135.87    9.29
  -6   3  26   31.55    4.66
  -6  -3  26   39.51    5.18
  -6   3  27   86.58    7.95
  -6  -3  27   82.38    7.40
  -6   3  28   18.11    3.68
  -6  -3  28   19.58    4.01
  -6   3  29    6.26    2.56
  -6  -3  29    5.91    2.51
  -6   3  30    3.36    2.17
  -6  -3  30    1.79    1.29
  -6   3  31   -0.09    1.14
  -6  -3  31    0.90    1.76
  -6   3  32   19.99    4.00
  -6  -3  32   17.19    3.58
  -6   3  33    2.87    1.38
  -6  -3  33    2.50    1.55
  -6   3  34   39.16    5.63
  -6   3  35    3.49    2.04
  -6  -4   0  169.71    7.91
  -6   4   0  162.67    6.01
  -6   4  -1   12.63    1.57
  -6  -4   1   14.95    2.31
  -6  -4  -1   11.62    2.14
  -6   4   1   11.70    1.53
  -6  -4  -2   13.72    2.24
  -6   4  -2   15.62    1.68
  -6  -4   2   15.04    2.46
  -6   4   2   12.98    1.69
  -6   4  -3  100.88    4.55
  -6  -4   3  101.31    6.03
   6  -4  -3   93.53    4.95
  -6   4   3   95.79    4.70
  -6  -4  -3   99.45    5.99
   6  -4  -4   12.70    1.80
  -6  -4  -4   11.99    2.04
  -6  -4   4    8.41    1.77
  -6   4  -4   14.24    1.70
  -6   4   4   11.23    1.59
   6  -4  -5    3.53    1.07
  -6  -4   5    1.80    1.00
  -6  -4  -5    4.83    1.52
  -6   4   5    3.38    0.99
  -6   4  -5    3.61    0.89
  -6   4  -6    7.01    1.20
  -6  -4   6    8.11    1.83
  -6   4   6    9.76    1.72
  -6  -4  -6    9.91    1.96
   6  -4  -6    5.79    1.35
  -6  -4  -7    1.82    1.07
  -6  -4   7   -0.61    1.05
  -6   4  -7    0.18    0.57
   6  -4  -7    0.17    0.70
  -6   4   7    2.24    0.99
  -6  -4   8    2.78    1.17
  -6  -4  -8    4.44    1.50
  -6   4  -8    3.22    1.08
  -6   4   8    4.62    1.39
  -6  -4   9    6.52    1.64
  -6   4   9    5.26    1.34
  -6  -4  -9    5.93    1.81
  -6   4  -9    5.71    1.16
  -6  -4  10    2.34    1.03
  -6   4 -10    1.56    0.76
  -6   4  10    2.10    1.04
  -6  -4 -10    1.06    1.10
  -6  -4 -11  160.34    8.15
  -6   4  11  174.60    7.76
  -6  -4  11  162.34    8.25
  -6   4 -11  164.75    6.68
  -6   4 -12   94.14    4.98
  -6   4  12   92.60    5.71
  -6  -4 -12   85.90    5.96
  -6  -4  12   91.04    6.14
  -6   4 -12   86.36    5.01
  -6   4 -13    8.30    1.84
  -6   4 -13    7.37    1.53
  -6  -4 -13    5.35    1.56
  -6   4  13    9.51    1.92
  -6  -4  13    9.87    2.17
  -6   4 -14   95.00    5.27
  -6   4  14  102.56    6.37
  -6  -4  14   98.18    6.45
  -6  -4 -14   97.43    6.52
  -6   4  15   12.73    2.34
  -6  -4 -15   17.72    2.79
  -6  -4  15   14.84    2.53
  -6   4  16   28.40    3.54
  -6  -4  16   24.95    3.51
  -6   4  17    5.07    1.47
  -6  -4  17    8.01    2.18
  -6   4  18    6.38    1.65
  -6  -4  18    7.50    2.20
  -6   4  19    4.62    1.67
  -6  -4  19    6.24    2.09
  -6   4  20   40.25    4.78
  -6  -4  20   44.67    4.86
  -6   4  21    1.43    1.08
  -6  -4  21    6.92    2.17
  -6   4  22   15.79    3.05
  -6  -4  22    9.23    2.40
  -6   4  23   37.71    4.80
  -6  -4  23   38.22    4.61
  -6   4  24    4.19    1.59
  -6  -4  24    6.47    2.25
  -6   4  25   99.54    8.21
  -6  -4  25  102.60    7.92
  -6   4  26  136.74    9.76
  -6  -4  26  127.14    9.07
  -6   4  27    7.40    2.45
  -6  -4  27    3.57    1.72
  -6   4  28    8.80    2.51
  -6  -4  28    8.50    2.52
  -6   4  29   13.62    3.05
  -6  -4  29    2.71    1.34
  -6   4  30   22.60    4.14
  -6  -4  30   17.74    3.71
  -6   4  31   -0.17    1.33
  -6  -4  31    1.18    1.82
  -6   4  32    1.81    1.33
  -6  -4  32   -0.14    1.43
  -6   4  33    5.18    2.01
  -6  -4  33    2.13    1.73
  -6   4  34   31.39    5.17
  -6   4  35    2.25    1.65
  -6  -5   0  119.74    6.76
  -6   5   0  119.12    4.74
  -6  -5  -1   28.64    3.19
  -6  -5   1   30.62    3.34
  -6   5   1   30.48    2.32
  -6   5  -1   28.60    2.21
  -6   5  -2   15.44    1.60
  -6  -5  -2   12.19    2.16
  -6  -5   2   13.87    2.26
  -6   5   2   14.09    1.58
  -6   5  -3   41.96    2.70
  -6  -5   3   37.40    3.70
  -6   5   3   40.91    2.87
   6  -5  -3   38.31    2.93
  -6  -5  -3   40.91    3.85
  -6   5  -4   46.59    2.85
  -6  -5   4   43.62    4.12
  -6   5   4   48.98    3.24
   6  -5  -4   45.95    3.31
  -6  -5  -4   49.44    4.26
   6  -5  -5    5.61    1.14
  -6  -5   5    3.46    1.17
  -6   5  -5    5.82    0.99
  -6   5   5    7.57    1.43
  -6  -5  -5    8.06    1.89
  -6  -5   6   10.98    2.12
  -6   5   6   14.34    1.97
  -6   5  -6    9.76    1.32
  -6  -5  -6   10.91    2.20
   6  -5  -6    9.41    1.64
  -6  -5  -7   21.87    2.96
  -6   5  -7   14.33    1.66
  -6  -5   7   14.93    2.41
  -6   5   7   17.15    2.18
   6  -5  -7   14.61    2.07
  -6  -5   8   14.58    2.45
  -6  -5  -8   16.19    2.45
  -6   5  -8   15.60    1.71
   6  -5  -8   13.38    2.05
  -6   5   8   15.54    2.06
  -6  -5   9   -0.67    1.08
  -6   5   9    0.98    0.80
  -6  -5  -9   -0.10    0.84
  -6   5  -9    1.05    0.69
  -6  -5  10   30.46    3.55
  -6   5  10   38.05    3.48
  -6   5 -10   30.13    2.54
  -6  -5 -10   29.59    3.47
  -6  -5  11    6.88    1.80
  -6   5 -11    4.94    1.29
  -6  -5 -11    4.28    1.35
  -6   5  11    3.56    1.16
  -6   5 -11    4.71    1.12
  -6   5 -12    7.37    1.45
  -6   5 -12    7.96    1.39
  -6   5  12    7.10    1.60
  -6  -5  12    7.57    2.47
  -6  -5 -12    6.91    1.76
  -6  -5 -13    2.83    1.33
  -6   5  13    3.36    1.16
  -6   5 -13    4.40    1.06
  -6  -5  13    7.20    1.97
  -6   5  14   21.59    2.95
  -6  -5 -14   16.53    2.84
  -6  -5  14   16.05    2.67
  -6   5 -14   14.97    2.01
  -6   5  15    3.97    1.39
  -6  -5 -15    2.03    1.23
  -6  -5  15    3.41    1.47
  -6   5  16   25.07    3.37
  -6  -5  16   27.73    3.55
  -6  -5 -16   24.80    3.39
  -6   5  17    3.08    1.31
  -6  -5  17    5.99    1.70
  -6   5  18   92.09    6.97
  -6  -5  18   94.35    6.86
  -6   5  19   -0.13    1.16
  -6  -5  19    2.37    1.63
  -6   5  20    3.66    1.37
  -6  -5  20   10.43    2.53
  -6   5  21   34.50    4.47
  -6  -5  21   32.40    4.23
  -6   5  22   75.11    6.82
  -6  -5  22   71.92    6.37
  -6   5  23    5.50    1.96
  -6  -5  23    9.44    2.50
  -6   5  24  102.57    8.18
  -6  -5  24  123.43    8.59
  -6   5  25    4.18    1.91
  -6  -5  25    4.43    1.41
  -6   5  26   80.19    7.22
  -6  -5  26   72.68    6.76
  -6   5  27    1.76    1.61
  -6  -5  27   -2.90    1.83
  -6   5  28   21.83    4.11
  -6  -5  28   21.96    3.94
  -6   5  29    6.93    2.62
  -6  -5  29    6.69    2.25
  -6   5  30   33.40    4.97
  -6  -5  30   37.50    5.39
  -6   5  31    9.44    2.73
  -6  -5  31    3.13    1.89
  -6   5  32    8.31    2.83
  -6  -5  32    7.64    2.68
  -6   5  33    3.98    1.73
  -6  -5  33    4.53    1.76
  -6   5  34    1.39    1.83
  -6   5  35   11.88    3.02
  -6  -6   0   42.90    4.04
  -6   6   0   36.35    2.34
  -6  -6  -1    3.52    1.13
  -6   6   1    5.15    0.99
  -6  -6   1    3.30    1.06
  -6   6  -1    3.69    0.76
  -6  -6  -2   10.42    2.15
  -6   6   2    7.74    1.29
  -6  -6   2    7.60    1.91
  -6   6  -2    8.89    1.09
  -6  -6   3   88.47    5.96
  -6   6   3   89.64    4.23
   6  -6  -3   90.09    4.29
  -6   6  -3   89.90    3.61
  -6  -6  -3   92.32    6.01
   6  -6  -4   32.55    2.62
  -6  -6   4   33.79    3.69
  -6   6   4   31.82    2.55
  -6   6  -4   36.44    2.21
  -6  -6  -4   31.31    3.63
  -6  -6  -5   49.59    4.54
  -6   6  -5   44.43    2.58
  -6  -6   5   49.95    4.41
  -6   6   5   47.82    3.29
   6  -6  -5   46.46    3.24
  -6  -6   6   37.38    3.78
  -6  -6  -6   44.46    4.13
   6  -6  -6   39.42    3.08
  -6   6  -6   40.26    2.44
  -6   6   6   41.46    3.14
  -6  -6  -7    3.30    1.41
  -6  -6   7    0.81    1.20
  -6   6   7    2.21    0.96
   6  -6  -7    2.15    0.96
  -6   6  -7    2.92    0.74
  -6   6  -8    5.77    1.05
  -6  -6   8    7.96    1.86
  -6  -6  -8    6.27    1.85
   6  -6  -8    5.92    1.39
  -6   6   8    6.59    1.37
  -6   6  -8    8.21    1.21
  -6   6  -9    3.66    0.93
   6  -6  -9    2.09    0.88
  -6  -6   9    1.62    0.95
  -6   6   9    2.20    0.95
  -6   6  -9    2.94    0.75
  -6  -6  -9    2.38    1.24
  -6   6 -10   76.39    3.88
  -6   6  10   83.73    5.40
  -6  -6 -10   87.47    6.05
  -6  -6  10   78.03    5.76
  -6   6 -10   85.74    4.35
  -6  -6  11    0.43    0.70
  -6   6 -11    1.70    0.79
  -6  -6 -11   -0.80    1.01
  -6   6  11    0.06    0.81
  -6   6  12   24.83    3.12
  -6  -6 -12   23.43    3.25
  -6   6 -12   29.69    2.48
  -6  -6  12   26.13    3.37
  -6   6  13   57.30    4.81
  -6   6 -13   57.77    3.61
  -6  -6 -13   61.54    5.23
  -6  -6  13   60.09    5.16
  -6   6  14   13.78    2.46
  -6  -6 -14   16.22    2.75
  -6   6 -14   16.05    1.99
  -6  -6  14   19.99    3.15
  -6  -6 -15   30.81    3.84
  -6   6  15   32.73    3.84
  -6  -6  15   41.50    4.38
  -6  -6 -16   29.72    3.85
  -6   6  16   30.50    3.89
  -6  -6  16   33.78    4.02
  -6   6  17   82.01    6.45
  -6  -6  17   81.19    6.28
  -6   6  18   14.23    2.84
  -6  -6  18   12.38    2.59
  -6   6  19   69.92    6.18
  -6  -6  19   60.51    5.58
  -6   6  20   49.35    5.30
  -6  -6  20   45.81    4.99
  -6   6  21   17.83    3.21
  -6  -6  21   17.95    3.35
  -6   6  22    3.52    2.17
  -6  -6  22    0.87    1.68
  -6   6  23    0.48    1.36
  -6  -6  23    1.08    1.63
  -6   6  24   85.38    7.25
  -6  -6  24   87.42    7.26
  -6   6  25   29.42    4.31
  -6  -6  25   33.48    4.57
  -6   6  26   45.30    5.61
  -6  -6  26   42.94    5.20
  -6   6  27   58.71    6.24
  -6  -6  27   61.96    6.40
  -6   6  28    6.41    2.79
  -6  -6  28    5.61    2.19
  -6  -6  29   93.77    8.30
  -6   6  29   86.35    7.85
  -6  -6  30   43.21    5.80
  -6   6  30   49.70    5.89
  -6   6  31   28.84    4.54
  -6  -6  31   25.63    4.45
  -6   6  32    2.15    1.49
  -6  -6  32    4.17    2.19
  -6   6  33   44.42    5.67
  -6   6  34   28.64    4.76
  -6   6  35    9.80    3.00
  -6   7   0   83.57    3.39
  -6  -7   0   76.51    5.62
  -6  -7  -1   13.94    2.46
  -6   7  -1   16.17    1.37
  -6   7   1   11.77    1.28
  -6  -7   1   13.70    2.50
  -6  -7  -2   17.99    2.82
  -6   7   2   22.80    1.91
  -6   7  -2   18.63    1.44
  -6  -7   2   18.30    2.67
  -6   7   3   50.50    3.05
  -6  -7   3   54.38    4.73
  -6   7  -3   46.03    2.25
  -6  -7  -3   49.95    4.50
  -6  -7  -4   48.05    4.44
   6  -7  -4   43.53    2.84
  -6   7   4   46.62    3.07
  -6  -7   4   39.64    4.09
  -6   7  -4   42.51    2.12
  -6   7  -5    9.04    0.95
  -6   7   5   11.63    1.63
   6  -7  -5    9.08    1.31
  -6  -7   5    9.78    2.07
  -6  -7  -5   10.22    2.29
  -6   7  -6    2.77    0.64
  -6   7  -6    2.36    0.56
  -6   7   6    2.64    0.92
  -6  -7   6    0.04    0.87
  -6  -7  -6    1.14    1.22
   6  -7  -6    1.35    0.52
  -6  -7  -7    2.09    1.26
  -6   7  -7    3.71    0.78
  -6   7   7    4.44    1.00
  -6  -7   7    2.55    1.28
  -6   7  -7    3.89    0.74
   6  -7  -7    3.92    1.05
  -6   7  -8   12.45    1.40
  -6  -7  -8    9.26    2.09
  -6  -7   8   12.30    2.32
   6  -7  -8   10.06    1.62
  -6   7   8   11.61    1.85
  -6   7  -8   11.72    1.25
   6  -7  -9    7.98    1.54
  -6   7  -9   10.89    1.30
  -6  -7   9   10.15    2.13
  -6   7   9   11.35    1.98
  -6  -7  -9   13.51    2.46
  -6  -7  10    8.31    1.85
  -6   7  10    9.56    1.94
  -6   7 -10    8.87    1.16
  -6  -7 -10    7.21    1.98
   6  -7 -10    7.42    1.70
  -6  -7  11    2.88    1.11
  -6  -7 -11    4.55    1.51
  -6   7  11    3.65    1.34
  -6   7 -11    5.16    1.01
  -6   7  12   42.40    4.15
  -6  -7 -12   42.32    4.38
  -6   7 -12   39.69    2.73
  -6  -7  12   35.60    4.03
  -6   7 -13   39.55    2.79
  -6   7  13   40.36    4.24
  -6  -7 -13   41.00    4.33
  -6  -7  13   38.88    4.20
  -6   7 -14    9.71    1.53
  -6   7  14   18.20    2.93
  -6  -7 -14   15.06    2.74
  -6  -7  14   14.49    2.60
  -6   7  15   64.14    5.40
  -6  -7  15   55.74    5.22
  -6  -7 -15   61.55    5.50
  -6   7  16   14.82    2.86
  -6  -7 -16   10.37    2.54
  -6  -7  16   11.59    2.28
  -6   7  17  112.60    7.59
  -6  -7 -17  112.73    7.78
  -6  -7  17   96.94    6.96
  -6   7  18   85.34    6.65
  -6  -7  18   75.05    6.23
  -6   7  19    0.69    1.39
  -6  -7  19    2.60    1.27
  -6   7  20    6.40    2.13
  -6  -7  20    5.65    2.02
  -6   7  21   15.41    3.15
  -6  -7  21   13.78    2.98
  -6   7  22   72.94    6.48
  -6  -7  22   70.54    6.44
  -6   7  23    0.43    1.24
  -6  -7  23    3.44    2.06
  -6   7  24   19.02    3.47
  -6  -7  24   19.94    3.68
  -6  -7  25   56.88    6.03
  -6   7  25   62.00    6.36
  -6   7  26   -0.12    1.16
  -6  -7  26    0.92    1.22
  -6   7  27   37.58    4.95
  -6  -7  27   33.24    4.93
  -6   7  28    6.23    2.68
  -6  -7  28    9.61    2.99
  -6  -7  29   73.62    7.37
  -6   7  29   77.70    7.30
  -6   7  30    5.07    2.37
  -6  -7  30    0.53    1.40
  -6  -7  31   46.36    6.07
  -6   7  31   61.93    6.62
  -6   7  32    5.41    2.40
  -6  -7  32   -2.43    1.51
  -6   7  33    7.48    2.98
  -6   7  34   11.75    3.12
  -6   7  35   18.14    3.99
  -6   8   0   34.99    2.02
  -6  -8   0   56.15    4.88
  -6  -8  -1   14.10    2.48
  -6   8   1    9.35    1.11
  -6  -8   1   10.31    2.21
  -6  -8  -2    2.37    1.05
  -6   8   2    2.19    0.57
  -6  -8   2    3.08    1.08
  -6   8   3    0.24    0.55
  -6  -8  -3   -0.39    0.94
  -6  -8   3    1.76    1.46
  -6   8   4    8.87    1.31
  -6  -8  -4   11.87    2.30
  -6  -8   4   11.55    2.37
   6  -8  -4   10.30    1.26
  -6   8   5   93.81    4.73
  -6  -8  -5  109.22    6.97
  -6  -8   5  111.13    6.89
   6  -8  -5   98.92    4.30
  -6   8   6    0.33    0.52
  -6  -8   6    0.48    0.83
  -6  -8  -6    0.80    1.37
   6  -8  -6    0.84    0.67
  -6   8  -7    0.93    0.29
  -6   8   7    2.07    0.92
  -6  -8   7    1.50    1.07
   6  -8  -7    0.71    0.53
  -6  -8  -7    1.76    1.14
  -6   8   8    1.18    1.08
  -6  -8  -8    1.52    1.20
   6  -8  -8    0.77    0.52
  -6  -8   8   -0.72    1.25
  -6   8  -8    0.77    0.34
  -6  -8   9   68.57    5.45
  -6   8   9   66.95    4.66
  -6   8  -9   60.99    2.60
  -6  -8  -9   68.65    5.46
  -6   8 -10    0.49    0.36
  -6  -8  10    0.71    0.82
  -6   8  10    0.75    0.72
  -6  -8 -10   -0.68    0.80
  -6  -8 -11    9.39    2.30
  -6  -8  11    8.73    2.10
  -6   8  11    8.68    1.70
  -6   8 -11    7.68    1.07
  -6   8  12   47.02    4.23
  -6  -8 -12   48.87    4.78
  -6   8 -12   41.85    2.59
  -6  -8  12   50.08    4.81
  -6  -8  13   25.29    3.52
  -6   8  13   27.69    3.39
  -6  -8 -13   27.47    3.72
  -6   8 -13   28.81    2.25
  -6  -8 -14   10.31    2.38
  -6   8  14   14.09    2.57
  -6   8 -14   10.34    1.38
  -6  -8  14   12.49    2.39
  -6   8  15   52.53    4.73
  -6  -8 -15   37.43    4.31
  -6  -8  15   45.44    4.66
  -6   8 -15   44.37    3.08
  -6   8  16   49.50    4.66
  -6  -8  16   43.01    4.70
  -6  -8 -16   51.43    5.10
  -6   8  17   26.30    3.57
  -6  -8 -17   21.43    3.31
  -6  -8  17   25.71    3.69
  -6   8  18   12.10    2.69
  -6  -8 -18    8.24    2.23
  -6  -8  18    9.78    2.34
  -6   8  19  118.16    7.81
  -6  -8  19  117.50    8.01
  -6   8  20   10.45    2.54
  -6  -8  20    9.13    2.20
  -6   8  21    7.23    2.34
  -6  -8  21    3.62    1.79
  -6   8  22    1.68    1.52
  -6  -8  22    3.07    1.88
  -6   8  23   12.14    2.62
  -6  -8  23   18.28    3.36
  -6   8  24   11.94    2.57
  -6  -8  24   16.42    3.35
  -6  -8  25   63.44    6.32
  -6   8  25   66.74    6.27
  -6  -8  26   74.05    6.94
  -6   8  26   70.34    6.58
  -6   8  27   42.58    5.18
  -6  -8  27   32.85    4.78
  -6   8  28    3.80    2.08
  -6  -8  28    0.34    1.40
  -6  -8  29   50.27    6.14
  -6   8  29   63.44    6.52
  -6   8  30   36.35    5.04
  -6  -8  30   44.89    5.94
  -6   8  31    7.56    2.48
  -6  -8  31    2.19    1.23
  -6   8  32    4.50    2.25
  -6  -9   0   40.29    4.23
  -6  -9  -1   -0.30    0.98
  -6  -9   1    0.89    1.06
  -6  -9   2   57.39    5.01
  -6  -9  -2   44.74    4.50
  -6  -9   3   73.55    5.67
  -6  -9  -3   65.81    5.46
  -6   9   3   62.67    2.64
  -6   9   4    4.92    0.85
  -6  -9  -4    4.10    1.47
  -6  -9   4    4.38    1.53
  -6  -9   5   27.83    3.56
  -6  -9  -5   28.10    3.55
  -6   9   5   25.85    2.07
  -6  -9   6  134.04    7.80
  -6  -9  -6  141.53    8.03
  -6   9   6  119.04    5.00
  -6   9   7    1.25    0.85
  -6  -9   7    0.42    1.01
  -6  -9  -7   -0.40    0.92
  -6  -9   8   91.73    6.54
  -6  -9  -8   87.30    6.35
  -6   9   8   82.42    4.62
  -6   9   9    8.92    1.64
  -6  -9   9    5.59    1.65
  -6  -9  -9    5.15    1.90
  -6   9  10   12.66    1.93
  -6  -9  10   14.57    2.59
  -6  -9 -10   11.24    2.45
  -6  -9  11   19.77    3.13
  -6  -9 -11   19.58    3.14
  -6   9  11   23.71    2.89
  -6  -9 -12  205.37   10.23
  -6  -9  12  201.99   10.02
  -6   9  12  199.00    8.64
  -6  -9  13    3.97    1.81
  -6   9  13    5.14    1.77
  -6  -9 -13    4.62    1.83
  -6  -9 -14   39.15    4.50
  -6   9  14   47.40    4.34
  -6  -9  14   37.86    4.24
  -6   9  15    4.19    1.34
  -6  -9 -15    2.69    1.26
  -6  -9  15    1.94    1.32
  -6  -9  16   75.30    6.29
  -6  -9 -16   65.57    5.99
  -6   9  16   64.62    5.23
  -6  -9 -17   43.97    4.94
  -6  -9  17   61.85    5.64
  -6   9  17   55.28    4.97
  -6   9  18    5.13    1.75
  -6  -9 -18    3.42    1.37
  -6  -9  18    5.47    1.68
  -6  -9 -19   28.91    4.19
  -6   9  19   36.97    4.23
  -6  -9  19   38.14    4.52
  -6   9  20    1.76    1.48
  -6  -9  20   -0.26    1.18
  -6   9  21   -0.08    1.07
  -6  -9  21    0.34    1.39
  -6   9  22    3.08    1.04
  -6  -9  22    1.80    1.55
  -6   9  23    0.66    1.05
  -6  -9  23    3.85    2.03
  -6   9  24    3.91    1.63
  -6  -9  24    8.76    2.69
  -6   9  25    4.85    2.21
  -6  -9  25    7.10    2.48
  -6  -9  26   85.09    7.57
  -6   9  26   86.46    7.23
  -6  -9  27    3.40    2.21
  -6   9  27    3.99    2.00
  -6  -9  28   25.03    4.28
  -6   9  28   32.34    4.64
  -6  -9  29    2.38    1.96
  -6  -9  30   73.00    7.49
  -6 -10   0  393.12   14.42
  -6 -10  -1   22.83    3.32
  -6 -10   1   26.00    3.54
  -6 -10  -2   23.84    3.39
  -6 -10   2   30.93    3.81
  -6 -10  -3    0.43    1.21
  -6 -10   3    0.36    1.02
  -6 -10  -4   -0.42    1.10
  -6 -10   4   -0.67    1.14
  -6 -10  -5   41.81    4.52
  -6 -10   5   36.06    4.02
  -6 -10   6    8.86    2.10
  -6 -10  -6   17.45    2.99
  -6 -10   7    0.80    0.90
  -6 -10  -7   -0.96    1.03
  -6 -10  -8    5.11    1.75
  -6 -10   8    3.01    1.56
  -6 -10   9   24.33    3.51
  -6 -10  -9   23.45    3.38
  -6 -10  10    0.34    0.85
  -6 -10 -10    1.98    0.82
  -6  10  10    1.51    0.94
  -6 -10 -11   48.82    4.98
  -6  10  11   50.03    3.79
  -6 -10  11   46.64    4.80
  -6 -10  12  155.73    8.96
  -6  10  12  179.28    7.64
  -6 -10 -12  172.38    9.52
  -6  10  13   19.50    2.63
  -6 -10  13   21.85    3.29
  -6 -10 -13   21.89    3.51
  -6 -10 -14  333.00   13.85
  -6 -10  14  354.40   13.93
  -6  10  14  338.46   11.72
  -6  10  15   15.08    2.51
  -6 -10  15   10.26    2.33
  -6 -10 -15    9.74    2.35
  -6  10  16   20.03    2.95
  -6 -10 -16   14.85    2.77
  -6 -10  16   21.70    3.52
  -6  10  17    4.93    1.69
  -6 -10 -17    5.84    1.91
  -6 -10  17    6.31    1.86
  -6 -10 -18    7.46    2.20
  -6 -10  18    5.38    1.93
  -6  10  18   10.86    2.24
  -6 -10 -19   33.32    4.51
  -6 -10  19   29.23    4.09
  -6  10  19   26.85    3.56
  -6 -10 -20    0.24    1.11
  -6 -10  20    0.49    1.22
  -6  10  20    1.56    1.25
  -6 -10  21    4.74    2.02
  -6  10  21    5.61    1.69
  -6 -10  22    3.20    1.69
  -6  10  22    2.00    1.52
  -6 -10  23    3.63    1.25
  -6 -10  24    7.18    2.47
  -6 -10  25   41.99    5.41
  -6 -10  26  137.11    9.79
  -6 -10  27    9.73    2.87
  -6 -10  28   70.53    7.20
  -6 -10  29   -0.13    1.17
  -6 -10  30    2.78    1.69
  -6 -11   0  410.60   15.23
  -6 -11   1  254.03   11.51
  -6 -11  -1  244.74   11.42
  -6 -11   2  105.21    7.17
  -6 -11  -2  108.60    7.35
  -6 -11  -3   11.21    2.70
  -6 -11   3    6.62    1.89
  -6 -11  -4    0.71    1.03
  -6 -11   4   -0.71    1.25
  -6 -11  -5   78.75    6.24
  -6 -11   5   85.96    6.43
  -6 -11  -6   66.92    5.82
  -6 -11   6   64.25    5.58
  -6 -11   7   -2.68    2.05
  -6 -11  -7    2.33    1.75
  -6 -11  -8   24.68    3.55
  -6 -11   8   20.17    3.15
  -6 -11   9   93.09    6.87
  -6 -11  -9   87.99    6.68
  -6 -11  10   27.68    3.81
  -6 -11 -10   30.78    3.93
  -6 -11 -11   41.07    4.66
  -6 -11  11   45.88    4.83
  -6 -11 -12   39.97    4.71
  -6 -11  12   44.15    4.73
  -6 -11 -13  397.35   15.42
  -6 -11  13  426.63   15.74
  -6 -11 -14  146.02    9.09
  -6 -11  14  155.29    9.18
  -6 -11 -15   71.68    6.36
  -6 -11  15   75.91    6.37
  -6 -11 -16  154.88    9.48
  -6 -11  16  158.24    9.40
  -6 -11 -17    0.53    1.13
  -6 -11  17    3.46    1.53
  -6 -11 -18    4.23    1.98
  -6 -11  18    6.22    2.21
  -6 -11 -19    4.45    1.78
  -6 -11  19    7.22    2.13
  -6 -11 -20   13.06    3.04
  -6 -11  20   11.92    2.52
  -6 -11  21    0.95    1.05
  -6 -11 -21    0.31    1.30
  -6 -11  22    1.74    1.47
  -6 -11  23    5.14    2.01
  -6 -11  24   20.06    3.73
  -6 -11  25   39.76    5.24
  -6 -11  26   51.52    5.94
  -6 -11  27  167.47   11.07
  -6 -11  28   15.03    3.60
  -6 -11  29   11.97    3.34
  -6 -12   0   47.87    5.34
  -6 -12   1 1047.67   27.43
  -6 -12  -1 1073.85   27.70
  -6 -12  -2    3.30    1.76
  -6 -12   2    2.14    1.29
  -6 -12   3   84.50    6.59
  -6 -12  -3   78.05    6.28
  -6 -12  -4   25.15    3.65
  -6 -12   4   21.82    3.24
  -6 -12  -5  106.27    7.41
  -6 -12   5   90.99    6.80
  -6 -12   6    8.40    2.14
  -6 -12  -6   13.93    2.80
  -6 -12   7   -2.58    1.98
  -6 -12  -7    0.09    0.96
  -6 -12   8   55.45    5.34
  -6 -12  -8   55.50    5.43
  -6 -12  -9   25.44    3.69
  -6 -12   9   29.70    3.93
  -6 -12  10    0.48    1.10
  -6 -12 -10    1.92    1.27
  -6 -12 -11   66.95    5.94
  -6 -12  11   56.54    5.39
  -6 -12  12    3.80    2.10
  -6 -12 -12    5.75    2.34
  -6 -12  13  620.66   19.87
  -6 -12 -13  588.68   19.65
  -6 -12  14   28.72    4.13
  -6 -12 -14   30.07    4.35
  -6 -12 -15  442.75   16.90
  -6 -12  15  448.44   16.68
  -6 -12 -16    1.28    2.05
  -6 -12  16    0.85    1.42
  -6 -12 -17   11.80    2.99
  -6 -12  17    8.62    2.33
  -6 -12 -18   36.00    4.73
  -6 -12  18   41.81    4.93
  -6 -12  19   33.34    4.41
  -6 -12 -19   33.45    4.69
  -6 -12 -20   -2.73    1.90
  -6 -12  20    0.53    1.20
  -6 -12 -21   -2.11    1.55
  -6 -12  21    0.30    1.57
  -6 -12 -22   42.35    5.64
  -6 -12  22   50.08    5.71
  -6 -12  23    2.36    1.95
  -6 -12  24   23.23    4.17
  -6 -12  25   94.24    8.04
  -6 -12  26    4.26    2.18
  -6 -12  27  192.02   11.88
  -6 -12  28    9.39    3.10
  -6 -13   0  537.39   18.32
  -6 -13   1  454.25   16.64
  -6 -13  -1  457.14   16.67
  -6 -13   2   80.74    6.66
  -6 -13  -2   84.05    6.83
  -6 -13  -3   34.00    4.23
  -6 -13   3   37.05    4.50
  -6 -13  -4   29.75    3.92
  -6 -13   4   31.19    3.98
  -6 -13  -5    1.13    1.15
  -6 -13   5   -2.65    2.13
  -6 -13   6    2.76    1.51
  -6 -13  -6    5.30    2.08
  -6 -13   7    6.10    1.69
  -6 -13  -7    5.81    2.10
  -6 -13   8   54.47    5.37
  -6 -13  -8   50.26    5.31
  -6 -13  -9   23.17    3.59
  -6 -13   9   19.03    3.12
  -6 -13  10    2.67    1.09
  -6 -13 -10    0.85    0.97
  -6 -13  11   66.36    5.99
  -6 -13 -11   62.74    5.87
  -6 -13 -12   76.38    6.53
  -6 -13  12   85.13    6.98
  -6 -13 -13  178.05   10.30
  -6 -13  13  177.61   10.08
  -6 -13 -14  214.20   11.42
  -6 -13  14  229.85   11.60
  -6 -13 -15  434.13   17.02
  -6 -13  15  465.95   17.21
  -6 -13 -16   38.24    4.89
  -6 -13  16   36.05    4.61
  -6 -13 -17   72.25    6.74
  -6 -13  17   62.57    6.15
  -6 -13 -18   33.13    4.65
  -6 -13  18   38.43    4.73
  -6 -13 -19   14.89    3.23
  -6 -13  19   18.02    3.36
  -6 -13  20    5.89    2.16
  -6 -13 -20    3.78    1.71
  -6 -13 -21    4.41    2.26
  -6 -13  21    5.55    2.24
  -6 -13 -22   68.48    7.23
  -6 -13  22   78.70    7.08
  -6 -13 -23    3.70    2.41
  -6 -13  23   11.33    3.20
  -6 -13  24   31.05    4.58
  -6 -13  25   83.86    7.73
  -6 -13  26   75.14    7.43
  -6 -13  27   46.64    5.92
  -6 -14   0  553.41   19.03
  -6 -14   1   86.66    7.00
  -6 -14  -1   82.15    6.93
  -6 -14   2  256.52   12.27
  -6 -14  -2  258.25   12.26
  -6 -14  -3   33.52    4.37
  -6 -14   3   29.22    4.10
  -6 -14  -4   17.65    3.13
  -6 -14   4   29.55    4.04
  -6 -14  -5    4.95    1.82
  -6 -14   5   -0.43    1.65
  -6 -14  -6   78.54    6.68
  -6 -14   6   76.48    6.56
  -6 -14   7    7.57    2.32
  -6 -14  -7    8.28    2.22
  -6 -14   8  104.43    7.54
  -6 -14  -8  107.96    7.81
  -6 -14  -9   14.73    2.98
  -6 -14   9   13.45    2.78
  -6 -14 -10    0.82    1.15
  -6 -14  10    1.35    1.25
  -6 -14  11   13.08    3.04
  -6 -14 -11   12.71    2.68
  -6 -14 -12  272.24   12.89
  -6 -14  12  295.63   13.46
  -6 -14 -13   75.81    6.81
  -6 -14  13   78.12    6.82
  -6 -14  14  477.22   17.61
  -6 -14 -14  451.83   17.49
  -6 -14 -15   91.85    7.60
  -6 -14  15  101.02    7.77
  -6 -14 -16  223.73   12.02
  -6 -14  16  229.24   11.88
  -6 -14 -17   49.72    5.81
  -6 -14  17   44.87    5.24
  -6 -14  18   31.36    4.48
  -6 -14 -18   24.51    4.22
  -6 -14 -19    1.21    1.59
  -6 -14  19    3.28    1.81
  -6 -14 -20   13.03    3.18
  -6 -14  20   19.67    3.65
  -6 -14  21   56.67    6.15
  -6 -14 -21   47.14    5.90
  -6 -14 -22   26.25    4.56
  -6 -14  22   33.96    4.86
  -6 -14  23   10.20    2.92
  -6 -14 -23    9.87    2.96
  -6 -14 -24   15.65    3.86
  -6 -14  24   13.20    3.04
  -6 -14 -25    3.91    2.67
  -6 -14  25   -0.27    1.32
  -6 -14  26  104.38    8.68
  -6 -15   0  282.64   13.27
  -6 -15   1  106.50    7.95
  -6 -15  -1  126.34    8.63
  -6 -15   2  175.99   10.18
  -6 -15  -2  182.31   10.42
  -6 -15   3   46.27    5.15
  -6 -15  -3   48.85    5.46
  -6 -15  -4   -2.72    2.05
  -6 -15   4    1.23    1.40
  -6 -15  -5    0.02    1.32
  -6 -15   5    2.02    1.58
  -6 -15   6    0.33    1.04
  -6 -15  -6    1.75    1.54
  -6 -15   7   45.73    5.05
  -6 -15  -7   41.51    4.93
  -6 -15   8   -0.32    1.15
  -6 -15  -8   -0.16    1.00
  -6 -15   9   -1.35    1.49
  -6 -15  -9    2.54    1.53
  -6 -15 -10    2.88    1.78
  -6 -15  10    4.37    1.46
  -6 -15  11   -0.53    1.15
  -6 -15 -11    0.64    1.12
  -6 -15 -12  140.97    9.24
  -6 -15  12  141.07    9.22
  -6 -15  13   36.44    4.81
  -6 -15 -13   41.43    5.13
  -6 -15 -14  171.16   10.42
  -6 -15  14  176.56   10.40
  -6 -15  15   68.32    6.46
  -6 -15 -15   73.36    6.80
  -6 -15 -16   49.03    5.72
  -6 -15  16   49.68    5.49
  -6 -15 -17   16.20    3.37
  -6 -15  17   16.26    3.41
  -6 -15 -18   -0.07    1.15
  -6 -15  18    0.11    1.35
  -6 -15  19   -0.89    1.27
  -6 -15 -19    5.25    2.48
  -6 -15 -20   -0.06    1.14
  -6 -15  20    0.34    1.49
  -6 -15  21  112.66    8.74
  -6 -15 -21  106.43    8.90
  -6 -15 -22    6.22    2.46
  -6 -15  22   12.97    3.16
  -6 -15 -23   12.90    3.41
  -6 -15  23   13.60    3.23
  -6 -15 -24    9.90    3.33
  -6 -15  24   11.89    3.09
  -6 -15 -25   29.46    5.16
  -6 -15  25   25.51    4.35
  -6 -16   0   34.50    4.74
  -6 -16   1  106.73    8.02
  -6 -16  -1   98.16    7.73
  -6 -16   2   94.98    7.65
  -6 -16  -2   89.61    7.42
  -6 -16  -3    8.84    2.50
  -6 -16   3   11.52    2.88
  -6 -16  -4   41.60    5.03
  -6 -16   4   38.59    4.96
  -6 -16   5   82.87    7.02
  -6 -16  -5   78.07    6.84
  -6 -16   6    3.62    1.54
  -6 -16  -6    4.67    1.92
  -6 -16   7    4.66    1.58
  -6 -16  -7    9.10    2.62
  -6 -16   8    2.92    1.75
  -6 -16  -8    4.76    1.74
  -6 -16   9   60.87    6.11
  -6 -16  -9   57.16    5.81
  -6 -16  10   60.38    6.23
  -6 -16 -10   64.24    6.21
  -6 -16 -11   23.17    3.64
  -6 -16  11   23.73    3.85
  -6 -16  12   38.69    4.99
  -6 -16 -12   41.94    5.18
  -6 -16 -13   75.94    6.87
  -6 -16  13   70.79    6.62
  -6 -16  14   23.72    3.96
  -6 -16 -14   19.05    3.54
  -6 -16  15   23.30    3.85
  -6 -16 -15   32.06    4.56
  -6 -16  16   57.47    5.96
  -6 -16 -16   55.88    6.15
  -6 -16 -17    2.45    1.66
  -6 -16  17    7.77    2.27
  -6 -16 -18    3.41    1.74
  -6 -16  18   10.04    2.94
  -6 -16 -19    9.94    2.73
  -6 -16  19   14.28    3.11
  -6 -16  20   12.47    3.17
  -6 -16 -20   15.49    3.43
  -6 -16 -21   39.32    5.51
  -6 -16  21   34.99    5.00
  -6 -16 -22   20.07    4.18
  -6 -16  22   14.71    3.43
  -6 -16 -23   10.03    2.85
  -6 -16  23   11.73    2.98
  -6 -16  24   50.71    6.13
  -6 -16 -24   41.81    5.93
  -6 -17   0   50.52    5.55
  -6 -17  -1    1.70    1.55
  -6 -17   1   -1.64    1.66
  -6 -17  -2   -2.17    1.97
  -6 -17   2    0.48    1.24
  -6 -17  -3   27.53    4.22
  -6 -17   3   30.81    4.63
  -6 -17  -4   23.00    3.91
  -6 -17   4   20.95    3.73
  -6 -17  -5    8.96    2.43
  -6 -17   5    8.69    2.53
  -6 -17  -6    1.34    1.47
  -6 -17   6    1.24    1.35
  -6 -17   7    2.46    1.43
  -6 -17  -7    4.65    1.83
  -6 -17   8   29.05    4.25
  -6 -17  -8   34.26    4.71
  -6 -17   9   22.07    3.73
  -6 -17  -9   20.53    3.54
  -6 -17  10   14.38    3.37
  -6 -17 -10   12.38    2.89
  -6 -17 -11   32.48    4.38
  -6 -17  11   40.16    5.08
  -6 -17  12    4.63    1.88
  -6 -17 -12    6.83    2.29
  -6 -17  13   35.13    4.71
  -6 -17 -13   44.10    5.27
  -6 -17  14   12.83    2.90
  -6 -17 -14    9.56    2.64
  -6 -17  15    6.51    2.20
  -6 -17 -15    4.62    1.90
  -6 -17  16    5.28    1.86
  -6 -17 -16    8.41    2.63
  -6 -17 -17    0.83    1.28
  -6 -17  17    1.50    1.07
  -6 -17 -18    8.56    2.46
  -6 -17  18    8.14    2.38
  -6 -17 -19    4.72    1.77
  -6 -17  19    7.62    2.21
  -6 -17 -20   16.30    3.56
  -6 -17  20   13.41    3.28
  -6 -17 -21   -1.12    1.94
  -6 -17  21    2.62    1.70
  -6 -17 -22   64.70    7.29
  -6 -17  22   58.80    6.50
  -6 -17 -23    1.66    1.25
  -6 -18   0   10.66    2.08
  -6 -18   1   23.39    4.01
  -6 -18  -1   24.37    4.08
  -6 -18  -2   14.03    3.02
  -6 -18   2   13.18    2.98
  -6 -18   3   66.30    6.65
  -6 -18  -3   63.53    6.46
  -6 -18  -4   19.55    3.76
  -6 -18   4   15.24    3.25
  -6 -18  -5   23.79    4.08
  -6 -18   5   24.22    4.01
  -6 -18  -6    0.51    1.41
  -6 -18   6   -1.28    1.54
  -6 -18   7    2.90    1.79
  -6 -18  -7    0.49    1.15
  -6 -18   8   22.77    4.00
  -6 -18  -8   16.48    3.55
  -6 -18   9   54.47    5.97
  -6 -18  -9   57.53    6.16
  -6 -18  10   12.73    3.11
  -6 -18 -10   14.61    3.14
  -6 -18  11  108.84    8.52
  -6 -18 -11   99.59    8.10
  -6 -18 -12    8.48    2.46
  -6 -18  12    7.91    2.30
  -6 -18  13   15.46    3.19
  -6 -18 -13   17.12    3.40
  -6 -18  14    0.75    1.37
  -6 -18 -14    3.33    1.81
  -6 -18  15   -0.60    1.78
  -6 -18 -15    4.69    2.14
  -6 -18  16   38.28    5.15
  -6 -18 -16   29.30    4.52
  -6 -18 -17   21.01    4.03
  -6 -18  17   21.26    3.97
  -6 -18 -18   12.81    3.12
  -6 -18  18   18.17    3.96
  -6 -18 -19    1.37    1.55
  -6 -18  19   -1.07    1.46
  -6 -18 -20   19.92    4.01
  -6 -18  20   18.18    3.50
  -6 -18 -21    2.66    1.23
  -6 -18  21    1.68    1.78
  -6 -19   0   23.55    4.02
  -6 -19   1    5.60    2.31
  -6 -19  -1    1.86    1.08
  -6 -19  -2    2.71    1.49
  -6 -19   2    3.54    1.87
  -6 -19  -3    3.10    1.83
  -6 -19   3    3.87    1.92
  -6 -19  -4    2.53    1.75
  -6 -19   4    7.37    2.82
  -6 -19  -5   39.89    5.25
  -6 -19   5   38.80    5.19
  -6 -19  -6    1.04    1.22
  -6 -19   6   -0.92    1.67
  -6 -19   7    1.20    1.29
  -6 -19  -7    3.93    2.02
  -6 -19   8   -1.51    1.64
  -6 -19  -8    0.07    1.72
  -6 -19   9  107.74    8.46
  -6 -19  -9   95.14    8.19
  -6 -19  10    8.15    2.66
  -6 -19 -10    4.87    2.44
  -6 -19  11    8.00    2.72
  -6 -19 -11    5.78    2.05
  -6 -19 -12   15.57    3.24
  -6 -19  12   16.33    3.43
  -6 -19 -13   39.67    5.14
  -6 -19  13   40.57    5.36
  -6 -19  14   16.63    3.62
  -6 -19 -14   19.55    3.72
  -6 -19  15    7.61    2.41
  -6 -19 -15    2.35    1.72
  -6 -19 -16   62.67    6.69
  -6 -19  16   64.81    6.69
  -6 -19 -17   24.69    4.37
  -6 -19  17   20.36    3.88
  -6 -19 -18    2.75    2.30
  -6 -19  18    0.46    1.49
  -6 -19 -19   -1.46    1.15
  -6 -19  19    0.27    1.72
  -6 -20   0   60.05    6.47
  -6 -20   1   10.22    2.59
  -6 -20  -1    4.36    1.46
  -6 -20  -2    1.64    1.73
  -6 -20   2    5.27    2.31
  -6 -20   3   46.62    5.92
  -6 -20  -3   49.94    5.98
  -6 -20   4   57.49    6.48
  -6 -20  -4   58.18    6.46
  -6 -20  -5    2.41    1.80
  -6 -20   5    5.80    2.39
  -6 -20  -6   33.67    5.01
  -6 -20   6   36.51    5.12
  -6 -20  -7   -0.66    1.05
  -6 -20   7    2.31    2.06
  -6 -20   8   23.52    4.24
  -6 -20  -8   13.82    3.27
  -6 -20   9    9.66    3.12
  -6 -20  -9   15.65    3.45
  -6 -20  10   86.49    7.95
  -6 -20 -10   80.05    7.47
  -6 -20  11    6.80    2.57
  -6 -20 -11    9.10    3.06
  -6 -20  12    1.17    1.08
  -6 -20 -12    1.35    1.48
  -6 -20 -13   23.74    4.10
  -6 -20  13   23.75    4.13
  -6 -20  14   34.18    5.09
  -6 -20 -14   33.91    5.03
  -6 -20  15    3.91    1.97
  -6 -20 -15    1.68    1.85
  -6 -20  16    9.21    2.96
  -6 -20 -16    8.89    2.77
  -6 -20 -17   46.15    5.88
  -6 -20  17   44.48    5.67
  -6 -21   0    0.14    1.11
  -6 -21   1    0.97    1.25
  -6 -21  -1    0.66    1.52
  -6 -21   2    0.71    1.39
  -6 -21  -2   -0.63    1.30
  -6 -21  -3   18.81    3.73
  -6 -21   3   20.58    4.03
  -6 -21  -4   18.61    3.68
  -6 -21   4   25.69    4.57
  -6 -21  -5    5.73    2.34
  -6 -21   5    4.68    3.00
  -6 -21   6   55.02    6.35
  -6 -21  -6   67.43    6.96
  -6 -21  -7    1.54    2.02
  -6 -21   7    1.84    1.58
  -6 -21   8   32.21    4.74
  -6 -21  -8   46.71    5.77
  -6 -21   9   -0.02    1.47
  -6 -21  -9    0.56    1.45
  -6 -21  10   43.84    5.71
  -6 -21 -10   34.58    5.01
  -6 -21  11    0.84    1.11
  -6 -21 -11    0.40    1.19
  -6 -21  12   12.95    3.27
  -6 -21 -12   11.99    3.14
  -6 -21  13    0.67    1.10
  -6 -21 -13    0.11    1.23
  -6 -21 -14   -0.95    1.11
  -6 -21  14    1.17    1.88
  -6 -21  15   -0.12    1.55
  -6 -22   0   56.08    6.56
  -6 -22   1   11.22    3.28
  -6 -22  -1    4.76    1.73
  -6 -22   2    1.98    1.68
  -6 -22  -2    5.93    2.06
  -6 -22  -3    6.24    2.05
  -6 -22   3    8.68    2.63
  -6 -22  -4   32.85    4.95
  -6 -22   4   39.47    5.53
  -6 -22  -5   38.81    5.28
  -6 -22   5   43.57    5.78
  -6 -22  -6    0.25    1.11
  -6 -22   6   -0.51    1.55
  -6 -22  -7   -1.30    1.92
  -6 -22   7   -0.85    1.15
  -6 -22   8    5.78    2.83
  -6 -22  -8    4.73    2.21
  -6 -22   9   36.89    5.37
  -6 -22  -9   28.58    4.77
  -6 -22  10   17.47    3.75
  -6 -22 -10   23.68    4.49
  -6 -22  11    8.22    2.37
  -6 -22 -11    9.77    2.97
  -6 -22  12    4.26    1.90
  -6 -23   0  105.65    9.18
  -6 -23   1   16.51    3.89
  -6 -23  -1   14.15    3.78
  -6 -23   2    0.29    1.56
  -6 -23  -2    1.94    1.69
  -6 -23   3   44.53    6.13
  -6 -23  -3   40.17    5.52
  -6 -23  -4   49.40    6.32
  -6 -23   4   43.20    5.90
  -6 -23  -5   26.21    4.54
  -6 -23   5   35.67    5.21
  -6 -23  -6    2.77    1.81
  -6 -23   6    5.05    2.15
  -6 -23  -7    2.83    2.19
  -6 -23   7   -2.47    1.98
  -6 -23   8   -0.23    1.78
  -7   0   0    0.55    0.65
  -7   0   1   -0.47    0.82
  -7   0  -1    0.74    0.72
  -7   0   2    0.96    0.75
  -7   0  -2    0.45    0.78
  -7   0   3   -0.21    0.86
  -7   0  -3   -0.03    0.79
  -7   0  -4   50.14    4.10
  -7   0   4   51.47    4.18
  -7   0   5    0.99    0.65
  -7   0  -5    0.57    0.98
  -7   0  -6  184.81    8.20
  -7   0   6  180.32    8.20
  -7   0  -7    0.85    1.25
  -7   0   7    1.26    1.40
  -7   0   8   78.92    5.45
  -7   0  -8   78.29    5.32
  -7   0  -9   -0.52    0.88
  -7   0   9    0.83    1.14
  -7   0  10    6.98    1.73
  -7   0 -10    5.36    1.41
  -7   0 -11    0.24    0.65
  -7   0  11    1.33    1.04
  -7   0 -12    0.19    0.68
  -7   0  12    1.24    1.13
  -7   0 -13    0.43    0.81
  -7   0  13   -0.02    0.80
  -7   0  14   63.25    5.37
  -7   0 -14   60.99    4.93
  -7   0 -15   -0.22    0.94
  -7   0  15   -0.39    0.86
  -7   0  16    3.54    1.42
  -7   0 -16    3.41    1.39
  -7   0 -17    0.27    1.20
  -7   0  17    1.41    1.46
  -7   0  18  271.36   12.17
  -7   0 -18  294.26   12.28
  -7   0 -19    2.08    1.51
  -7   0  19    2.80    1.68
  -7   0 -20  160.30    9.34
  -7   0  20  155.32    9.29
  -7   0  21    0.66    1.51
  -7   0  22    2.85    1.87
  -7   0  23    1.73    1.32
  -7   0  24   18.27    3.53
  -7   0  25   -2.95    2.11
  -7   0  26    7.96    2.32
  -7   0  27    0.61    1.36
  -7   0  28   54.14    6.43
  -7   0  29   -1.35    1.95
  -7   0  30   10.05    2.63
  -7   0  31    0.80    1.71
  -7   0  32  245.08   15.00
  -7   1   0   -0.72    0.80
  -7  -1   0   -0.43    0.91
  -7  -1   1   30.61    3.27
  -7   1  -1   30.15    3.06
  -7   1   1   28.40    2.92
  -7  -1  -1   28.27    3.16
  -7  -1   2   37.63    3.70
  -7   1  -2   38.37    3.49
  -7  -1  -2   42.66    3.90
  -7   1   2   42.14    3.63
  -7   1   3    9.38    1.76
  -7  -1   3    8.52    1.59
  -7   1  -3   11.44    1.87
  -7  -1  -3   10.00    1.88
  -7   1   4    8.56    1.58
  -7  -1   4    7.02    1.87
  -7   1  -4    7.95    1.46
  -7  -1  -4    6.27    1.57
  -7   1  -5   95.91    5.58
  -7  -1  -5   95.62    5.90
  -7   1   5   87.02    5.39
  -7  -1   5  100.41    6.06
  -7   1  -6    4.79    1.28
  -7  -1   6    7.38    1.78
  -7  -1  -6    6.67    1.52
  -7   1   6    8.69    1.86
  -7   1   7   86.43    5.56
  -7   1  -7   80.63    5.17
  -7  -1   7   81.09    5.48
  -7  -1  -7   74.42    5.26
  -7  -1  -8   66.28    4.97
  -7   1   8   57.17    4.54
  -7  -1   8   69.65    5.16
  -7   1  -8   67.27    4.66
  -7   1  -9   38.09    3.61
  -7  -1  -9   38.84    3.86
  -7   1   9   36.15    3.67
  -7  -1   9   36.58    3.75
  -7   1  10    7.35    1.83
  -7   1 -10    4.94    1.42
  -7  -1  10    4.14    1.14
  -7  -1 -10    6.34    1.75
  -7   1 -11   91.02    5.72
  -7  -1 -11  103.55    6.38
  -7   1  11  110.10    6.69
  -7  -1  11  104.95    6.61
  -7   1 -12   97.45    5.94
  -7   1  12  113.69    6.81
  -7  -1 -12  103.25    6.44
  -7  -1  12  104.05    6.65
  -7   1 -13    2.84    1.23
  -7   1  13    5.82    1.69
  -7  -1 -13    3.64    1.64
  -7  -1  13    6.12    1.93
  -7  -1 -14    2.34    1.25
  -7   1  14    0.98    1.21
  -7  -1  14    2.50    1.35
  -7   1 -14   -0.53    0.83
  -7   1 -15    2.37    1.36
  -7  -1 -15    0.38    0.78
  -7   1  15    2.52    1.72
  -7  -1  15    1.59    1.36
  -7   1  16    4.34    1.74
  -7  -1  16    2.75    1.20
  -7   1 -16    2.36    1.41
  -7  -1 -16    2.83    1.29
  -7   1 -17   16.92    2.58
  -7  -1 -17   23.18    3.34
  -7   1  17   24.64    3.45
  -7  -1  17   16.27    2.82
  -7   1  18    8.47    2.22
  -7  -1  18    7.05    2.32
  -7  -1 -18    9.42    2.34
  -7   1 -18    7.72    2.09
  -7  -1 -19   43.06    4.69
  -7   1 -19   43.58    4.60
  -7  -1  19   38.86    4.59
  -7   1  19   37.20    4.37
  -7   1  20    4.79    2.02
  -7  -1  20    5.03    2.08
  -7  -1 -20    3.96    1.47
  -7  -1  21   52.93    5.41
  -7   1  21   42.10    5.00
  -7   1  22   19.34    3.56
  -7  -1  22   16.57    2.99
  -7   1  23    5.41    2.03
  -7  -1  23    2.92    1.59
  -7   1  24   -0.76    1.22
  -7  -1  24   -2.22    1.51
  -7   1  25   31.85    4.68
  -7  -1  25   27.68    4.41
  -7   1  26   60.98    6.74
  -7  -1  26   78.62    7.48
  -7   1  27    3.99    1.75
  -7  -1  27    7.88    2.62
  -7   1  28    4.09    2.02
  -7  -1  28    2.57    1.60
  -7   1  29    1.74    1.64
  -7  -1  29   -2.01    2.43
  -7   1  30    1.53    1.53
  -7  -1  30   -0.57    1.66
  -7   1  31    2.08    1.37
  -7  -1  31   -0.44    1.97
  -7   1  32    2.97    2.53
  -7  -1  32    0.54    1.79
  -7   2   0   -0.53    0.75
  -7  -2   0   -0.06    0.73
  -7   2   1    0.34    0.68
  -7   2  -1    0.66    0.59
  -7  -2   1    0.20    0.71
  -7  -2  -1   -0.33    0.96
  -7   2   2   13.35    1.90
  -7  -2   2   16.06    2.53
  -7   2  -2   16.16    2.21
  -7  -2  -2    9.99    1.97
  -7   2   3    0.68    0.84
  -7  -2   3   -1.32    0.96
  -7   2  -3    0.52    0.68
  -7  -2  -3    1.80    1.15
  -7  -2   4    6.57    1.61
  -7   2  -4    2.16    0.64
  -7   2   4    3.40    1.15
  -7  -2  -4    3.31    1.20
  -7   2  -5  169.95    7.37
  -7  -2  -5  181.02    8.52
  -7   2   5  163.95    7.44
  -7  -2   5  168.11    8.16
  -7   2  -6   58.75    4.25
  -7   2   6   68.39    4.72
  -7  -2  -6   72.70    5.32
  -7  -2   6   72.45    5.30
  -7   2   7  283.19   10.34
  -7   2  -7  285.67   10.00
  -7  -2   7  285.55   11.10
  -7  -2  -7  284.70   11.05
  -7  -2  -8   26.70    3.26
  -7   2   8   28.72    3.20
  -7   2  -8   29.39    3.05
  -7  -2   8   30.16    3.42
  -7   2  -9   13.08    2.10
  -7   2   9   11.37    2.15
  -7  -2  -9    7.19    1.75
  -7  -2   9    8.76    1.87
  -7   2 -10    2.31    0.97
  -7   2  10    1.63    1.17
  -7  -2  10    2.00    0.95
  -7  -2 -10    3.66    1.39
  -7  -2 -11   16.07    2.65
  -7   2  11   14.59    2.52
  -7  -2  11   14.47    2.57
  -7   2 -11    9.26    1.76
  -7   2 -12    1.57    0.98
  -7  -2 -12    3.78    1.44
  -7   2  12    3.16    1.54
  -7  -2  12    0.45    0.99
  -7   2  13   36.91    3.93
  -7   2 -13   36.82    3.63
  -7  -2  13   45.46    4.48
  -7  -2 -13   38.84    4.12
  -7  -2 -14    1.14    0.99
  -7   2  14    3.11    1.25
  -7  -2  14    2.87    1.32
  -7   2 -14    1.85    0.95
  -7   2 -15    1.45    0.83
  -7  -2 -15    6.69    1.92
  -7   2  15    4.11    1.45
  -7  -2  15    4.05    3.38
  -7   2  16    9.96    2.12
  -7   2 -16   11.13    2.17
  -7  -2  16   12.79    2.66
  -7  -2 -16    9.28    2.15
  -7   2  17   44.42    4.66
  -7  -2  17   40.09    4.47
  -7   2 -17   45.81    4.32
  -7  -2 -17   42.33    4.65
  -7   2  18    2.05    1.45
  -7  -2 -18    0.84    1.50
  -7  -2  18    2.95    1.68
  -7   2 -18    1.42    1.05
  -7  -2 -19  303.85   13.31
  -7   2 -19  308.92   12.35
  -7   2  19  289.02   12.96
  -7  -2  19  299.36   13.19
  -7  -2 -20   39.91    4.83
  -7   2  20   46.16    5.15
  -7  -2  20   41.56    4.81
  -7   2  21   66.35    6.41
  -7  -2  21   79.16    6.76
  -7   2  22    8.56    2.45
  -7  -2  22    7.91    2.38
  -7   2  23   15.45    3.14
  -7  -2  23   17.38    3.27
  -7   2  24    0.40    1.18
  -7  -2  24    1.72    1.64
  -7   2  25    4.53    2.05
  -7  -2  25    2.39    1.26
  -7   2  26    0.12    1.95
  -7  -2  26   -1.26    1.35
  -7   2  27   40.55    5.51
  -7  -2  27   37.10    5.22
  -7   2  28   -0.88    1.51
  -7  -2  28   -2.68    1.71
  -7   2  29    0.16    1.55
  -7  -2  29    0.80    1.70
  -7   2  30    4.13    2.30
  -7  -2  30   -1.91    2.22
  -7   2  31   84.20    8.35
  -7  -2  31   74.96    8.08
  -7   2  32    3.60    2.27
  -7   3   0   -0.38    0.64
  -7  -3   0   -1.10    1.05
  -7   3  -1   60.60    3.94
  -7  -3   1   55.88    4.68
  -7  -3  -1   56.64    4.63
  -7   3   1   55.83    3.88
  -7   3  -2   76.15    4.56
  -7  -3   2   70.40    5.28
  -7  -3  -2   83.45    5.62
  -7   3   2   82.37    4.76
  -7  -3   3    2.98    1.25
  -7   3  -3    3.83    0.99
  -7   3   3    2.61    0.92
  -7  -3  -3    3.24    1.24
  -7  -3   4  154.10    8.03
  -7   3  -4  157.96    6.78
  -7  -3  -4  156.96    8.07
  -7   3   4  156.97    7.04
  -7  -3   5   87.05    5.88
  -7   3  -5   76.46    4.61
  -7   3   5   77.19    4.82
  -7  -3  -5   88.20    5.99
  -7   3  -6  324.89   10.40
  -7   3   6  345.67   11.11
  -7  -3  -6  332.47   12.24
  -7  -3   6  329.16   12.18
  -7  -3   7   14.44    2.52
  -7  -3  -7   16.20    2.71
  -7   3   7   10.90    2.17
  -7   3  -7   15.97    2.21
  -7  -3  -8  229.28   10.06
  -7   3   8  228.25    9.12
  -7   3  -8  226.98    8.52
  -7  -3   8  236.55   10.18
  -7   3   9   33.99    3.59
  -7  -3  -9   30.67    3.62
  -7   3  -9   34.13    3.12
  -7  -3   9   33.96    3.69
  -7   3 -10  177.80    7.52
  -7  -3 -10  160.96    8.43
  -7   3  10  168.18    8.04
  -7  -3  10  170.27    8.67
  -7  -3 -11    2.09    1.33
  -7   3  11    6.37    1.71
  -7   3 -11    1.91    1.10
  -7  -3  11    4.97    1.67
  -7   3 -12   29.00    2.97
  -7   3  12   36.66    3.82
  -7  -3 -12   24.50    3.28
  -7  -3  12   25.69    3.40
  -7   3  13   33.87    3.81
  -7   3 -13   30.17    3.19
  -7  -3 -13   32.20    3.85
  -7  -3  13   35.36    3.89
  -7  -3 -14    6.72    1.87
  -7   3  14    6.90    1.96
  -7   3 -14    9.76    1.91
  -7  -3  14    7.83    2.11
  -7   3 -15    2.37    1.11
  -7  -3 -15   -1.10    1.35
  -7   3  15    1.93    1.41
  -7  -3  15    2.37    1.51
  -7   3  16   14.60    2.74
  -7   3 -16   15.30    2.46
  -7  -3 -16   19.57    2.96
  -7  -3  16   18.13    2.98
  -7  -3 -17   16.49    2.91
  -7   3  17   20.28    3.35
  -7  -3  17   18.60    3.25
  -7   3 -17   15.35    2.45
  -7   3  18   16.41    2.96
  -7  -3 -18   17.00    3.19
  -7   3 -18   17.08    2.77
  -7  -3  18   17.36    3.14
  -7  -3 -19    5.39    2.15
  -7   3  19    3.13    1.94
  -7   3 -19    4.28    1.50
  -7  -3  19    8.03    2.62
  -7  -3 -20  184.26   10.55
  -7   3  20  171.16   10.20
  -7  -3  20  187.26   10.33
  -7   3  21    9.42    2.73
  -7  -3  21   10.87    2.67
  -7  -3 -21   15.67    3.36
  -7   3  22  313.93   14.70
  -7  -3  22  317.60   14.19
  -7   3  23   15.39    3.40
  -7  -3  23   21.61    3.73
  -7   3  24   64.45    6.66
  -7  -3  24   83.21    7.25
  -7   3  25   -0.32    1.41
  -7  -3  25    1.96    1.71
  -7   3  26   -0.02    1.31
  -7  -3  26   -0.32    1.37
  -7   3  27   -0.62    1.45
  -7  -3  27   -0.05    1.48
  -7   3  28    0.65    1.70
  -7  -3  28   -0.44    1.24
  -7   3  29    5.24    2.01
  -7  -3  29    5.48    2.01
  -7   3  30    2.61    1.54
  -7  -3  30   -1.64    2.28
  -7   3  31    4.71    2.36
  -7  -3  31    0.28    1.43
  -7   3  32    4.67    2.49
  -7   3  33    8.56    3.17
  -7   4   0   -0.33    0.52
  -7  -4   0   -1.25    1.23
  -7   4  -1   17.45    2.03
  -7  -4   1   19.90    2.83
  -7  -4  -1   14.60    2.37
  -7   4   1   21.63    2.32
  -7  -4   2   61.52    5.02
  -7  -4  -2   63.26    5.06
  -7   4   2   58.82    3.90
  -7   4  -2   62.34    3.88
  -7   4  -3   10.95    1.61
  -7  -4   3    6.63    1.68
  -7   4   3   10.21    1.61
  -7  -4  -3    9.60    1.85
  -7  -4   4   93.82    6.29
  -7   4  -4   93.13    4.84
  -7   4   4   99.73    5.25
  -7  -4  -4  103.53    6.57
  -7  -4   5  128.35    7.41
  -7   4  -5  111.68    5.36
  -7   4   5  130.64    6.20
  -7  -4  -5  126.53    7.35
  -7  -4   6  380.40   13.47
  -7   4  -6  378.19   10.94
  -7   4   6  387.10   11.74
  -7  -4  -6  378.69   13.50
  -7  -4  -7  258.05   10.93
  -7   4  -7  258.33    8.72
  -7   4   7  267.30    9.68
  -7  -4   7  263.91   10.93
  -7  -4  -8  190.47    9.30
  -7   4   8  190.33    8.19
  -7   4  -8  189.83    7.37
  -7  -4   8  185.86    9.14
  -7  -4  -9   70.86    5.54
  -7   4   9   75.47    5.11
  -7   4  -9   63.24    4.10
  -7  -4   9   66.87    5.47
  -7   4 -10    0.15    0.58
  -7   4  10    1.76    1.20
  -7  -4  10   -0.59    1.07
  -7  -4 -10    1.58    1.18
  -7  -4 -11    3.15    1.41
  -7   4  11    4.10    1.61
  -7   4 -11    1.94    0.95
  -7  -4  11    1.95    0.96
  -7   4 -12   34.48    3.16
  -7   4  12   35.63    3.81
  -7  -4 -12   32.64    3.75
  -7  -4  12   33.56    3.86
  -7   4 -13   12.45    2.04
  -7   4  13   10.96    2.25
  -7  -4 -13   13.96    2.58
  -7  -4  13   13.51    2.55
  -7  -4 -14   23.65    3.40
  -7   4  14   23.16    3.26
  -7   4 -14   18.58    2.44
  -7  -4  14   24.00    3.31
  -7  -4 -15    8.79    2.16
  -7   4  15    9.75    2.13
  -7  -4  15    8.65    2.04
  -7   4 -15   10.52    1.92
  -7   4  16   10.96    2.32
  -7   4 -16    9.34    1.91
  -7  -4 -16    8.23    1.88
  -7  -4  16   14.49    2.64
  -7   4  17    3.56    1.78
  -7  -4  17    8.55    2.42
  -7   4 -17    6.13    1.81
  -7  -4 -17    5.61    1.85
  -7   4  18  196.22   10.45
  -7  -4  18  190.67   10.25
  -7  -4 -18  200.01   10.73
  -7   4 -18  192.24    8.84
  -7   4  19   84.98    6.96
  -7  -4  19  101.82    7.49
  -7  -4 -19   87.72    7.24
  -7  -4 -20  289.80   13.62
  -7   4  20  273.14   13.18
  -7  -4  20  275.41   12.92
  -7   4  21  141.38    9.48
  -7  -4 -21  161.16   10.29
  -7  -4  21  135.96    9.08
  -7   4  22   29.96    4.44
  -7  -4  22   31.81    4.39
  -7   4  23   19.37    3.62
  -7  -4  23   14.72    3.11
  -7   4  24   17.44    3.69
  -7  -4  24   20.42    3.80
  -7   4  25   -0.13    1.22
  -7  -4  25    0.04    1.04
  -7   4  26    1.02    1.48
  -7  -4  26    1.64    1.31
  -7   4  27    1.33    1.35
  -7  -4  27   -0.93    1.12
  -7   4  28   32.94    5.26
  -7  -4  28   28.10    4.64
  -7   4  29    0.53    1.38
  -7  -4  29    1.84    1.60
  -7   4  30   18.21    3.81
  -7  -4  30   14.08    3.64
  -7   4  31    0.44    1.19
  -7   4  32  154.72   11.16
  -7   4  33   32.01    5.14
  -7  -5   0   -0.59    0.89
  -7   5   0   -0.02    0.47
  -7  -5   1   25.16    3.28
  -7   5   1   28.42    2.52
  -7   5  -1   26.92    2.34
  -7  -5  -1   30.73    3.62
  -7   5  -2    1.76    0.80
  -7  -5   2    2.19    1.27
  -7   5   2    0.07    0.52
  -7  -5  -2   -0.22    0.85
  -7  -5  -3    9.63    2.09
  -7   5  -3    9.73    1.44
  -7  -5   3    7.72    1.86
  -7   5   3   10.79    1.69
  -7  -5  -4    2.05    1.19
  -7   5  -4    1.56    0.84
  -7  -5   4    1.48    0.96
  -7   5   4    2.11    0.97
  -7  -5   5   38.11    4.07
  -7   5  -5   39.38    2.90
  -7  -5  -5   31.90    3.76
  -7   5   5   45.21    3.49
  -7  -5   6   14.55    2.63
  -7  -5  -6   15.56    2.86
  -7   5  -6   12.81    1.70
  -7   5   6   13.60    2.09
  -7  -5  -7  226.30   10.48
  -7   5  -7  230.34    7.78
  -7   5   7  248.04    9.07
  -7  -5   7  247.75   10.73
  -7  -5  -8   76.65    6.00
  -7   5   8   78.07    5.02
  -7   5  -8   72.64    4.12
  -7  -5   8   73.55    5.79
  -7  -5  -9  208.43   10.11
  -7   5   9  223.09    9.04
  -7   5  -9  235.88    7.96
  -7  -5   9  218.07   10.20
  -7  -5 -10   10.34    2.29
  -7  -5  10    9.44    2.08
  -7   5 -10   12.15    1.74
  -7   5  10   15.13    2.56
  -7  -5 -11    7.48    2.20
  -7   5 -11    7.04    1.38
  -7   5  11    9.30    2.03
  -7  -5  11    6.42    1.54
  -7   5 -12   50.33    3.67
  -7   5  12   45.41    4.27
  -7  -5 -12   47.68    4.72
  -7  -5  12   41.58    4.44
  -7   5  13   15.10    2.58
  -7  -5 -13   19.92    3.07
  -7  -5  13   16.68    2.82
  -7   5 -13   17.90    2.27
  -7   5  14    3.35    1.46
  -7  -5  14    4.41    1.49
  -7  -5 -14    6.01    1.81
  -7   5  15   33.49    4.13
  -7  -5 -15   32.54    4.10
  -7  -5  15   26.93    3.63
  -7   5  16   12.26    2.37
  -7  -5 -16   10.36    2.57
  -7  -5  16   17.81    3.08
  -7   5  17   28.48    3.88
  -7  -5  17   25.68    3.87
  -7  -5 -17   28.22    3.92
  -7  -5 -18   18.05    3.34
  -7   5  18   20.89    3.33
  -7  -5  18   16.42    3.23
  -7   5  19   11.71    2.91
  -7  -5 -19   10.91    2.75
  -7  -5  19   10.57    2.92
  -7  -5 -20    1.27    1.38
  -7   5  20    0.20    1.55
  -7  -5  20    2.42    1.64
  -7   5  21   50.76    5.73
  -7  -5  21   61.48    6.07
  -7  -5 -21   50.38    5.81
  -7   5  22   22.08    4.09
  -7  -5  22   23.36    3.76
  -7  -5 -22   28.04    4.53
  -7   5  23  102.59    8.35
  -7  -5  23  110.22    8.31
  -7   5  24    1.15    1.49
  -7  -5  24   -2.06    1.80
  -7   5  25    4.33    2.08
  -7  -5  25    4.91    1.93
  -7   5  26   65.97    6.98
  -7  -5  26   60.34    6.39
  -7   5  27   21.98    4.01
  -7  -5  27   19.05    3.82
  -7   5  28    1.10    1.04
  -7  -5  28    1.86    1.44
  -7   5  29    9.16    2.75
  -7  -5  29   10.31    2.97
  -7   5  30    4.47    1.90
  -7  -5  30   -0.07    1.53
  -7   5  31    7.02    2.57
  -7   5  32   28.27    4.92
  -7   5  33    1.08    1.90
  -7   6   0   -0.33    0.42
  -7  -6   0   -0.61    1.46
  -7  -6  -1   36.31    3.97
  -7   6   1   40.04    2.83
  -7   6  -1   38.36    2.60
  -7  -6   1   34.02    3.90
  -7   6   2   30.37    2.51
  -7  -6   2   23.11    3.21
  -7   6  -2   27.23    2.14
  -7  -6  -2   29.13    3.47
  -7  -6   3   50.93    4.78
  -7   6   3   45.78    3.20
  -7  -6  -3   56.92    5.02
  -7   6  -3   42.83    2.71
  -7  -6  -4   29.05    3.75
  -7   6   4   34.70    2.86
  -7  -6   4   29.27    3.71
  -7   6  -4   31.49    2.27
  -7  -6   5  247.14   10.87
  -7   6   5  247.33    8.53
  -7  -6  -5  239.50   10.81
  -7   6  -5  235.82    7.12
  -7  -6   6  462.90   15.87
  -7   6   6  469.79   12.97
  -7  -6  -6  446.88   15.53
  -7  -6   7  459.38   15.74
  -7  -6  -7  454.69   15.72
  -7   6   7  483.76   13.49
  -7  -6  -8  395.38   14.64
  -7   6   8  426.72   12.92
  -7  -6   8  402.83   14.64
  -7   6   9   51.26    4.25
  -7  -6  -9   52.03    5.04
  -7  -6   9   50.38    4.95
  -7  -6 -10    6.19    2.01
  -7  -6  10    6.55    1.95
  -7   6  10    3.89    1.09
  -7   6  11   46.79    4.25
  -7  -6 -11   48.52    4.76
  -7  -6  11   52.69    4.99
  -7   6  12   20.33    2.86
  -7  -6 -12   28.27    3.80
  -7  -6  12   26.37    3.57
  -7   6  13   -0.28    1.14
  -7  -6 -13   -1.39    1.05
  -7  -6  13   -0.89    1.20
  -7   6  14    2.23    1.25
  -7  -6  14    1.46    1.36
  -7  -6 -14    0.43    0.96
  -7  -6 -15   26.17    3.77
  -7   6  15   28.98    3.74
  -7  -6  15   32.06    4.04
  -7   6  16    4.60    1.56
  -7  -6 -16    4.56    1.83
  -7  -6  16    6.14    1.95
  -7   6  17    0.45    0.89
  -7  -6 -17   -0.77    1.04
  -7  -6  17    0.61    1.23
  -7   6  18   52.64    5.48
  -7  -6 -18   59.22    5.82
  -7  -6  18   53.79    5.52
  -7   6  19  261.34   12.67
  -7  -6  19  259.17   12.41
  -7  -6 -19  240.12   12.52
  -7   6  20  248.11   12.63
  -7  -6  20  238.27   12.09
  -7  -6 -20  240.99   12.69
  -7   6  21  236.83   12.42
  -7  -6 -21  229.29   12.61
  -7  -6  21  218.12   11.78
  -7   6  22  159.44   10.17
  -7  -6 -22  158.41   10.76
  -7  -6  22  158.54   10.03
  -7   6  23    0.68    1.18
  -7  -6  23    3.67    2.22
  -7   6  24    5.98    2.08
  -7  -6  24    2.09    1.58
  -7   6  25   19.77    3.61
  -7  -6  25   17.36    3.43
  -7   6  26    6.10    2.34
  -7  -6  26    8.03    2.56
  -7   6  27   12.00    2.83
  -7  -6  27   17.30    3.69
  -7   6  28   -0.41    1.44
  -7  -6  28   -0.96    1.56
  -7   6  29    5.65    2.49
  -7  -6  29    1.51    1.61
  -7   6  30    3.07    1.56
  -7   6  31   12.47    3.24
  -7   6  32   28.66    4.65
  -7   6  33   91.32    8.47
  -7  -7   0    1.69    1.31
  -7  -7   1   53.50    5.08
  -7  -7  -1   54.45    4.98
  -7  -7   2   17.51    2.80
  -7  -7  -2   21.53    3.23
  -7  -7  -3   -1.08    1.61
  -7   7   3   -0.19    0.47
  -7  -7   3    0.92    1.04
  -7  -7   4   42.12    4.47
  -7   7   4   39.99    3.06
  -7  -7  -4   39.03    4.30
  -7  -7   5   37.91    4.23
  -7   7   5   38.14    3.15
  -7  -7  -5   36.69    4.18
  -7  -7   6   46.87    4.77
  -7   7   6   40.71    3.27
  -7  -7  -6   38.82    4.37
  -7  -7   7    5.46    1.95
  -7   7   7    7.40    1.51
  -7  -7  -7    7.99    2.41
  -7  -7   8   14.41    2.79
  -7   7   8   12.27    1.94
  -7  -7  -8   18.72    3.21
  -7  -7   9   21.52    3.27
  -7   7   9   24.48    2.90
  -7  -7  -9   23.27    3.43
  -7  -7 -10   35.79    4.21
  -7  -7  10   32.47    3.98
  -7   7  10   29.54    3.32
  -7  -7  11   14.58    2.74
  -7  -7 -11   16.38    2.82
  -7   7  11   13.89    2.30
  -7  -7  12    0.94    1.22
  -7   7  12   -0.19    0.87
  -7  -7 -12    0.54    1.19
  -7   7  13   72.17    5.69
  -7  -7 -13   62.47    5.67
  -7  -7  13   59.05    5.50
  -7   7  14   48.38    4.79
  -7  -7  14   43.95    4.85
  -7  -7 -14   46.91    5.00
  -7  -7 -15    9.15    2.39
  -7   7  15    5.72    1.86
  -7  -7  15    6.34    2.17
  -7   7  16    8.74    2.27
  -7  -7 -16    8.66    2.20
  -7  -7  16    7.95    2.20
  -7   7  17   20.71    3.35
  -7  -7 -17   19.42    3.47
  -7  -7  17   18.33    3.31
  -7   7  18    0.93    1.06
  -7  -7  18    1.76    1.65
  -7  -7 -18   -0.61    1.43
  -7   7  19    7.91    2.12
  -7  -7 -19   12.04    2.97
  -7  -7  19   12.31    2.94
  -7   7  20   92.73    7.33
  -7  -7  20   72.58    6.65
  -7  -7 -20   87.32    7.73
  -7  -7 -21   13.78    3.44
  -7   7  21   15.98    3.21
  -7  -7  21   19.66    3.75
  -7   7  22    2.99    1.71
  -7  -7 -22    0.13    1.17
  -7   7  23    6.04    2.11
  -7  -7  23    4.19    1.54
  -7  -7 -23    3.62    1.30
  -7   7  24    1.49    1.16
  -7  -7  24    6.44    3.04
  -7   7  25   35.79    5.00
  -7  -7  25   43.79    5.52
  -7   7  26    5.13    2.07
  -7  -7  26   10.45    2.84
  -7   7  27   30.06    4.63
  -7  -7  27   34.36    4.99
  -7   7  28   20.65    3.98
  -7  -7  28   11.22    2.84
  -7   7  29   -0.44    1.05
  -7  -7  29    2.99    2.27
  -7   7  30    3.64    1.96
  -7   7  31   34.28    5.06
  -7   7  32   11.22    3.37
  -7   7  33    5.10    2.78
  -7  -8   0   -0.35    1.33
  -7  -8   1    6.44    1.85
  -7  -8  -1    7.89    2.02
  -7  -8   2  126.29    7.94
  -7  -8  -2  133.14    8.08
  -7  -8  -3    0.62    0.90
  -7  -8   3   -0.80    1.08
  -7  -8  -4    2.81    1.70
  -7  -8   4    1.97    1.15
  -7  -8   5  216.77   10.59
  -7  -8  -5  217.21   10.69
  -7  -8   6  259.61   11.68
  -7  -8  -6  251.36   11.58
  -7  -8  -7  524.64   17.57
  -7  -8   7  549.95   18.06
  -7  -8   8  184.48    9.73
  -7  -8  -8  185.09    9.96
  -7  -8  -9  146.51    8.79
  -7  -8   9  150.06    8.69
  -7  -8  10   15.57    2.83
  -7   8  10   13.42    2.32
  -7  -8 -10   10.21    2.52
  -7  -8  11   21.84    3.39
  -7  -8 -11   15.28    2.98
  -7   8  11   17.01    2.75
  -7   8  12   91.20    6.17
  -7  -8 -12   87.45    6.71
  -7  -8  12   84.84    6.66
  -7   8  13    3.84    1.73
  -7  -8 -13    2.75    1.54
  -7  -8  13    0.71    1.24
  -7   8  14   25.77    3.36
  -7  -8 -14   23.48    3.59
  -7  -8  14   21.02    3.28
  -7  -8 -15   13.52    2.91
  -7   8  15   13.90    2.70
  -7  -8  15   13.09    2.99
  -7   8  16   80.67    6.15
  -7  -8 -16   72.14    6.57
  -7  -8  16   84.35    6.82
  -7   8  17   24.12    3.41
  -7  -8 -17   29.51    4.24
  -7  -8  17   33.55    4.35
  -7   8  18   22.66    3.59
  -7  -8  18   27.85    4.09
  -7  -8 -18   30.98    4.49
  -7   8  19  198.66   10.39
  -7  -8 -19  189.68   11.25
  -7  -8  19  179.03   10.39
  -7   8  20  138.07    8.79
  -7  -8  20  137.60    9.14
  -7  -8 -20  147.33   10.13
  -7   8  21  246.75   12.12
  -7  -8  21  222.14   12.12
  -7  -8 -21  246.17   13.47
  -7  -8 -22   49.49    6.37
  -7  -8  22   42.57    5.37
  -7   8  22   49.96    5.54
  -7   8  23   42.31    5.04
  -7  -8  23   45.39    5.46
  -7  -8 -23   49.86    6.22
  -7   8  24   13.86    3.10
  -7  -8  24   15.35    3.47
  -7  -8 -24   13.16    3.44
  -7   8  25    8.90    2.46
  -7  -8  25   10.88    3.00
  -7   8  26   11.15    2.67
  -7  -8  26    9.84    2.82
  -7   8  27    1.15    1.57
  -7  -8  27    2.07    1.62
  -7   8  28   24.51    4.11
  -7  -8  28   19.26    3.92
  -7  -9   0    1.65    1.40
  -7  -9   1   30.44    3.88
  -7  -9  -1   26.52    3.65
  -7  -9   2   25.31    3.58
  -7  -9  -2   29.46    3.73
  -7  -9  -3   -0.64    1.47
  -7  -9   3   -0.69    1.21
  -7  -9  -4   30.61    3.94
  -7  -9   4   26.79    3.75
  -7  -9   5  304.48   12.83
  -7  -9  -5  283.12   12.58
  -7  -9   6   30.46    4.04
  -7  -9  -6   36.45    4.44
  -7  -9  -7  228.76   11.20
  -7  -9   7  229.19   11.14
  -7  -9   8   82.28    6.65
  -7  -9  -8   91.36    7.06
  -7  -9   9  303.84   13.03
  -7  -9  -9  303.77   13.18
  -7  -9  10    8.40    2.21
  -7  -9 -10    4.40    1.89
  -7  -9  11   -0.41    1.28
  -7  -9 -11    3.03    1.58
  -7  -9  12    0.79    1.06
  -7  -9 -12    4.47    2.04
  -7  -9  13   25.14    3.63
  -7  -9 -13   22.94    3.63
  -7  -9 -14    8.07    2.48
  -7  -9  14    7.45    2.11
  -7  -9  15    0.07    1.12
  -7  -9 -15    4.95    2.11
  -7  -9 -16    6.42    2.32
  -7  -9  16    3.57    1.75
  -7  -9 -17    1.91    1.47
  -7  -9  17    3.01    1.79
  -7  -9 -18    4.63    1.91
  -7  -9  18    5.57    2.06
  -7  -9 -19   76.60    7.14
  -7  -9  19   69.81    6.54
  -7  -9 -20    3.66    2.34
  -7  -9  20    2.24    2.06
  -7  -9  21  132.79    9.16
  -7  -9 -21  121.33    9.41
  -7  -9  22   33.83    4.66
  -7  -9 -22   31.47    5.06
  -7  -9 -23  182.35   12.18
  -7  -9  23  188.85   11.35
  -7  -9  24   17.40    3.57
  -7  -9 -24   15.95    4.10
  -7  -9  25    1.12    1.56
  -7  -9 -25   -2.34    2.24
  -7  -9  26    0.83    1.64
  -7  -9  27    6.80    2.41
  -7 -10   0   -1.83    1.93
  -7 -10   1   17.64    3.04
  -7 -10  -1   12.12    2.42
  -7 -10  -2    6.90    2.03
  -7 -10   2    4.20    1.85
  -7 -10   3  153.13    9.01
  -7 -10  -3  154.41    9.22
  -7 -10  -4   44.87    4.78
  -7 -10   4   47.65    5.07
  -7 -10  -5   14.60    2.93
  -7 -10   5   15.20    2.94
  -7 -10   6  260.30   12.16
  -7 -10  -6  266.60   12.29
  -7 -10  -7  196.54   10.57
  -7 -10   7  211.26   10.86
  -7 -10   8  180.27    9.96
  -7 -10  -8  181.86   10.11
  -7 -10   9    2.20    1.77
  -7 -10  -9    2.32    1.67
  -7 -10  10    2.59    1.85
  -7 -10 -10   -0.30    0.95
  -7 -10 -11  110.89    7.87
  -7 -10  11  109.41    7.69
  -7 -10  12    0.16    1.28
  -7 -10 -12    2.18    1.67
  -7 -10  13   -0.22    1.47
  -7 -10 -13    0.32    0.99
  -7 -10 -14   11.03    2.72
  -7 -10  14   15.10    3.13
  -7 -10  15   58.82    5.83
  -7 -10 -15   50.46    5.51
  -7 -10 -16    4.15    1.91
  -7 -10  16    1.02    1.09
  -7 -10 -17   41.04    5.15
  -7 -10  17   38.30    4.81
  -7 -10 -18  126.40    9.14
  -7 -10  18  131.47    9.05
  -7 -10 -19   36.49    5.13
  -7 -10  19   27.62    4.26
  -7 -10 -20  190.30   11.81
  -7 -10  20  203.30   11.41
  -7 -10  21   54.60    5.98
  -7 -10 -21   52.64    6.48
  -7 -10 -22   36.30    5.35
  -7 -10  22   40.61    5.29
  -7 -10  23   11.01    3.14
  -7 -10 -23    4.71    2.24
  -7 -10 -24    2.31    1.80
  -7 -10  24    3.14    1.85
  -7 -10  25   22.81    4.20
  -7 -10 -25   26.92    4.96
  -7 -10  26    5.87    2.63
  -7 -10 -26    0.05    1.66
  -7 -10 -27    5.32    5.60
  -7 -11   0   -0.12    1.13
  -7 -11   1   -0.17    0.94
  -7 -11  -1    0.45    0.94
  -7 -11  -2    9.81    2.21
  -7 -11   2    3.61    1.54
  -7 -11  -3    2.55    1.12
  -7 -11   3    2.16    1.04
  -7 -11  -4   38.63    4.61
  -7 -11   4   41.04    4.68
  -7 -11  -5    8.04    2.31
  -7 -11   5    6.13    2.10
  -7 -11   6   58.49    5.70
  -7 -11  -6   53.95    5.52
  -7 -11  -7   92.27    7.14
  -7 -11   7  101.21    7.50
  -7 -11   8  227.37   11.55
  -7 -11  -8  227.54   11.58
  -7 -11   9   88.17    7.00
  -7 -11  -9   73.80    6.53
  -7 -11 -10   37.88    4.67
  -7 -11  10   45.92    5.01
  -7 -11 -11   21.39    3.50
  -7 -11  11   28.83    3.93
  -7 -11  12    9.45    2.45
  -7 -11 -12    6.13    2.13
  -7 -11  13    5.19    1.90
  -7 -11 -13    8.91    2.39
  -7 -11  14   20.55    3.64
  -7 -11 -14   23.97    3.96
  -7 -11 -15    3.56    1.68
  -7 -11  15    1.76    1.76
  -7 -11  16    4.28    1.69
  -7 -11 -16    4.89    2.02
  -7 -11 -17    3.41    1.82
  -7 -11  17    1.54    1.50
  -7 -11 -18   36.19    4.92
  -7 -11  18   45.93    5.38
  -7 -11 -19    0.55    1.48
  -7 -11  19    1.23    1.07
  -7 -11  20   11.19    2.99
  -7 -11 -20    6.18    2.57
  -7 -11 -21   25.77    4.48
  -7 -11  21   23.39    4.03
  -7 -11  22  134.71    9.62
  -7 -11 -22  149.59   10.94
  -7 -11  23   96.55    8.25
  -7 -11 -23   98.86    9.13
  -7 -11  24   69.73    7.03
  -7 -11 -24   68.36    7.66
  -7 -11 -25    3.64    1.64
  -7 -11  25    7.99    2.79
  -7 -11 -26    5.83    2.95
  -7 -11 -27   27.79    5.39
  -7 -12   0    0.66    1.00
  -7 -12   1    3.07    1.42
  -7 -12  -1    0.30    1.39
  -7 -12   2  136.11    8.85
  -7 -12  -2  130.29    8.64
  -7 -12  -3   11.00    2.58
  -7 -12   3    7.25    2.08
  -7 -12  -4   22.89    3.77
  -7 -12   4   22.96    3.59
  -7 -12   5   99.77    7.51
  -7 -12  -5  102.90    7.65
  -7 -12  -6   28.77    4.15
  -7 -12   6   18.68    3.32
  -7 -12  -7   90.14    7.19
  -7 -12   7   99.64    7.59
  -7 -12   8   11.63    2.81
  -7 -12  -8   13.50    2.93
  -7 -12   9    4.42    2.02
  -7 -12  -9    8.83    2.49
  -7 -12  10   56.05    5.69
  -7 -12 -10   46.38    5.25
  -7 -12  11    0.12    1.14
  -7 -12 -11    0.07    1.16
  -7 -12 -12   69.08    6.46
  -7 -12  12   62.52    6.05
  -7 -12  13    3.36    1.73
  -7 -12 -13    4.54    2.00
  -7 -12  14   19.38    3.50
  -7 -12 -14   13.03    3.02
  -7 -12 -15    1.74    1.53
  -7 -12  15    4.19    1.81
  -7 -12  16   96.15    7.69
  -7 -12 -16   93.28    7.82
  -7 -12 -17   24.20    4.12
  -7 -12  17   26.61    4.19
  -7 -12 -18    0.34    1.16
  -7 -12  18    1.39    1.11
  -7 -12 -19  167.64   11.04
  -7 -12  19  163.25   10.37
  -7 -12 -20   11.42    3.53
  -7 -12  20   10.42    2.76
  -7 -12  21   34.92    4.89
  -7 -12 -21   31.25    4.94
  -7 -12 -22    3.32    2.29
  -7 -12  22    1.72    1.78
  -7 -12 -23   17.07    4.01
  -7 -12  23    6.25    1.78
  -7 -12 -24   21.13    4.39
  -7 -12  24   28.62    4.55
  -7 -12 -25   -1.25    1.78
  -7 -12 -26    8.57    3.12
  -7 -13   0   -1.12    1.81
  -7 -13   1   36.93    4.60
  -7 -13  -1   27.56    4.14
  -7 -13  -2   29.44    4.16
  -7 -13   2   48.05    5.24
  -7 -13  -3    5.39    1.76
  -7 -13   3   10.51    2.77
  -7 -13  -4   16.02    3.13
  -7 -13   4   26.27    3.97
  -7 -13  -5   -0.09    1.66
  -7 -13   5    0.01    1.17
  -7 -13  -6    7.25    2.26
  -7 -13   6    4.90    1.83
  -7 -13   7    2.64    1.97
  -7 -13  -7    0.81    1.07
  -7 -13   8   13.91    3.01
  -7 -13  -8   12.03    2.64
  -7 -13   9    9.23    2.38
  -7 -13  -9   10.02    2.75
  -7 -13  10    6.93    2.07
  -7 -13 -10    6.83    2.20
  -7 -13  11   -1.89    1.58
  -7 -13 -11    0.17    1.29
  -7 -13 -12   24.27    3.93
  -7 -13  12   18.15    3.44
  -7 -13 -13   53.81    5.83
  -7 -13  13   59.44    6.07
  -7 -13  14    2.57    1.67
  -7 -13 -14    5.92    2.30
  -7 -13  15    4.09    1.77
  -7 -13 -15    1.11    1.30
  -7 -13 -16    2.33    1.85
  -7 -13  16    3.21    1.61
  -7 -13 -17   27.59    4.33
  -7 -13  17   29.87    4.36
  -7 -13 -18    5.07    2.30
  -7 -13  18    3.96    1.68
  -7 -13 -19    2.29    1.99
  -7 -13  19    1.29    1.74
  -7 -13 -20    8.59    3.05
  -7 -13  20    1.41    1.63
  -7 -13 -21    3.28    1.96
  -7 -13  21    6.63    2.57
  -7 -13  22   -0.48    1.27
  -7 -13 -22    0.61    1.27
  -7 -13 -23   19.25    4.15
  -7 -13  23   16.09    3.41
  -7 -13 -24    6.98    2.95
  -7 -14   0    0.46    1.01
  -7 -14   1   17.85    3.35
  -7 -14  -1   18.22    3.26
  -7 -14   2    3.24    1.46
  -7 -14  -2    4.35    2.11
  -7 -14   3   69.70    6.62
  -7 -14  -3   78.92    6.98
  -7 -14  -4   20.48    3.71
  -7 -14   4   19.79    3.59
  -7 -14  -5    0.18    1.11
  -7 -14   5    3.35    1.65
  -7 -14   6   97.91    7.81
  -7 -14  -6  100.48    7.87
  -7 -14   7    0.16    1.47
  -7 -14  -7    1.16    1.43
  -7 -14   8   15.30    3.10
  -7 -14  -8   14.75    3.13
  -7 -14   9   29.11    4.31
  -7 -14  -9   24.70    3.99
  -7 -14  10    2.75    1.75
  -7 -14 -10    5.02    2.20
  -7 -14 -11   65.31    6.40
  -7 -14  11   62.62    6.20
  -7 -14 -12    3.17    1.84
  -7 -14  12    7.34    2.58
  -7 -14  13   -0.41    1.19
  -7 -14 -13    3.22    1.82
  -7 -14  14   15.03    3.12
  -7 -14 -14    7.96    2.14
  -7 -14  15   22.92    3.77
  -7 -14 -15   24.70    4.05
  -7 -14 -16   -1.93    1.18
  -7 -14  16    2.25    1.64
  -7 -14  17   55.66    6.04
  -7 -14 -17   45.99    5.83
  -7 -14  18   78.73    7.31
  -7 -14 -18   89.71    8.15
  -7 -14 -19    2.91    2.68
  -7 -14  19    0.71    1.51
  -7 -14 -20   87.19    8.17
  -7 -14  20   98.19    8.25
  -7 -14 -21    1.79    1.95
  -7 -14  21    0.83    1.30
  -7 -14 -22   13.19    3.64
  -7 -14  22    6.42    2.46
  -7 -14 -23   31.89    5.23
  -7 -15   0   -0.95    1.13
  -7 -15   1    7.13    2.26
  -7 -15  -1    5.49    1.82
  -7 -15   2   17.43    3.24
  -7 -15  -2   21.68    3.85
  -7 -15  -3   -0.34    1.23
  -7 -15   3    2.60    1.66
  -7 -15  -4    1.15    1.52
  -7 -15   4    3.54    1.90
  -7 -15  -5   23.06    3.77
  -7 -15   5   19.23    3.56
  -7 -15  -6    3.06    1.79
  -7 -15   6   -0.61    1.34
  -7 -15   7  398.10   16.47
  -7 -15  -7  357.25   15.80
  -7 -15   8   10.67    3.05
  -7 -15  -8   18.10    3.72
  -7 -15   9   61.28    6.43
  -7 -15  -9   64.94    6.61
  -7 -15  10    4.41    2.13
  -7 -15 -10    5.00    2.29
  -7 -15  11    0.51    1.21
  -7 -15 -11    0.67    1.09
  -7 -15  12   38.52    5.12
  -7 -15 -12   29.28    4.43
  -7 -15 -13    0.76    1.22
  -7 -15  13    1.76    1.46
  -7 -15  14    1.03    1.05
  -7 -15 -14    0.26    1.06
  -7 -15  15   -0.14    1.19
  -7 -15 -15    0.18    1.30
  -7 -15 -16   -0.50    1.36
  -7 -15  16    3.21    1.76
  -7 -15 -17    1.84    1.58
  -7 -15  17    3.08    2.16
  -7 -15 -18    2.48    1.62
  -7 -15  18    4.70    2.22
  -7 -15  19    9.60    3.14
  -7 -15 -19    4.13    1.87
  -7 -15 -20   -0.84    1.17
  -7 -15  20    4.66    2.09
  -7 -15 -21   93.41    8.71
  -7 -15  21   89.14    7.93
  -7 -16   0   -2.23    1.75
  -7 -16   1    3.41    1.54
  -7 -16  -1    4.11    1.57
  -7 -16   2   57.07    6.18
  -7 -16  -2   50.50    5.69
  -7 -16  -3    1.20    1.46
  -7 -16   3   -0.04    1.12
  -7 -16  -4    9.83    2.60
  -7 -16   4   13.73    3.22
  -7 -16   5   53.19    5.91
  -7 -16  -5   52.52    5.89
  -7 -16  -6   37.20    4.98
  -7 -16   6   43.17    5.46
  -7 -16   7   78.65    7.35
  -7 -16  -7   83.88    7.45
  -7 -16  -8   49.14    5.87
  -7 -16   8   59.92    6.34
  -7 -16   9    3.94    2.22
  -7 -16  -9    2.30    2.06
  -7 -16  10   22.11    4.03
  -7 -16 -10   37.60    5.01
  -7 -16  11    7.01    2.47
  -7 -16 -11   11.46    3.02
  -7 -16  12   16.41    3.40
  -7 -16 -12   13.15    2.93
  -7 -16  13    1.85    1.54
  -7 -16 -13    2.96    1.53
  -7 -16  14    8.94    2.74
  -7 -16 -14    7.69    2.76
  -7 -16  15   18.11    3.63
  -7 -16 -15   17.39    3.69
  -7 -16 -16   30.81    4.81
  -7 -16  16   23.19    4.04
  -7 -16 -17   19.22    3.87
  -7 -16  17   22.52    4.02
  -7 -16 -18    3.80    2.28
  -7 -16  18    5.34    2.40
  -7 -16  19  110.20    8.91
  -7 -16 -19  115.40    9.44
  -7 -16 -20   21.96    4.57
  -7 -17   0   -1.11    1.84
  -7 -17   1   -0.31    1.14
  -7 -17  -1   -0.21    1.62
  -7 -17   2    2.95    1.13
  -7 -17  -2    2.68    1.44
  -7 -17  -3    2.92    1.52
  -7 -17   3   30.03    4.46
  -7 -17  -4   11.96    3.01
  -7 -17   4   11.90    3.01
  -7 -17  -5   23.85    4.08
  -7 -17   5   24.42    4.19
  -7 -17   6  133.18    9.64
  -7 -17  -6  130.99    9.47
  -7 -17  -7    8.47    2.96
  -7 -17   7    8.37    3.13
  -7 -17   8  226.24   12.62
  -7 -17  -8  200.73   12.03
  -7 -17   9   -0.01    1.20
  -7 -17  -9    1.45    1.75
  -7 -17  10   27.61    4.53
  -7 -17 -10   26.92    4.56
  -7 -17  11    4.49    2.07
  -7 -17 -11    4.06    2.25
  -7 -17  12   18.31    3.56
  -7 -17 -12   17.40    3.52
  -7 -17  13    4.84    2.34
  -7 -17 -13    5.95    2.43
  -7 -17 -14    0.96    1.76
  -7 -17  14   -0.51    1.44
  -7 -17  15   19.91    4.09
  -7 -17 -15   22.97    4.14
  -7 -17  16   -1.06    1.73
  -7 -17 -16    1.95    1.90
  -7 -17 -17   14.69    3.52
  -7 -17  17   24.25    4.14
  -7 -17 -18    8.49    2.99
  -7 -18   0   -2.50    1.83
  -7 -18   1    0.70    1.29
  -7 -18  -1   -3.14    2.09
  -7 -18   2   14.72    3.46
  -7 -18  -2   16.24    3.32
  -7 -18  -3   18.67    3.68
  -7 -18   3   17.84    3.80
  -7 -18  -4   -2.73    1.66
  -7 -18   4    2.72    2.35
  -7 -18   5   76.62    7.50
  -7 -18  -5   67.50    6.94
  -7 -18   6  116.49    9.23
  -7 -18  -6  111.84    9.00
  -7 -18   7  132.22    9.75
  -7 -18  -7  129.07    9.68
  -7 -18   8   53.85    6.09
  -7 -18  -8   51.05    6.18
  -7 -18  -9   90.80    8.19
  -7 -18   9  104.80    8.73
  -7 -18  10   15.72    3.62
  -7 -18 -10   15.94    3.75
  -7 -18  11   26.04    4.55
  -7 -18 -11   18.68    3.79
  -7 -18  12   14.03    3.34
  -7 -18 -12   13.29    3.37
  -7 -18  13    7.46    2.47
  -7 -18 -13    5.89    2.24
  -7 -18  14   26.45    4.39
  -7 -18 -14   34.05    5.12
  -7 -18  15    6.07    2.31
  -7 -18 -15    7.14    2.49
  -7 -18 -16   -0.25    1.65
  -7 -19   0   -0.16    1.17
  -7 -19   1   20.52    4.09
  -7 -19  -1   25.68    4.32
  -7 -19   2   15.15    3.14
  -7 -19  -2    9.93    2.92
  -7 -19   3   -1.20    1.74
  -7 -19  -3    0.14    1.43
  -7 -19  -4    3.85    1.65
  -7 -19   4    5.66    2.16
  -7 -19  -5    7.29    2.38
  -7 -19   5   12.02    3.22
  -7 -19  -6   17.70    3.58
  -7 -19   6   27.03    4.56
  -7 -19  -7   17.07    3.38
  -7 -19   7   22.88    4.19
  -7 -19  -8    5.94    2.50
  -7 -19   8    3.29    2.02
  -7 -19   9    3.27    2.08
  -7 -19  -9    0.26    1.16
  -7 -19  10    0.30    1.38
  -7 -19 -10    0.68    1.63
  -7 -19  11    3.67    1.91
  -7 -19 -11    3.29    1.97
  -7 -19  12   13.42    3.51
  -7 -19 -12    9.72    2.76
  -7 -19 -13    5.94    2.44
  -7 -20   0   -2.36    2.06
  -7 -20   1   23.04    4.25
  -7 -20  -1   24.94    4.28
  -7 -20   2    1.86    1.61
  -7 -20  -2   -0.97    1.60
  -7 -20   3   36.34    5.33
  -7 -20  -3   37.38    5.32
  -7 -20  -4   40.45    5.55
  -7 -20   4   54.02    6.43
  -7 -20  -5   17.07    3.74
  -7 -20   5   19.38    4.46
  -7 -20   6  149.12   10.84
  -7 -20  -6  133.37   10.11
  -7 -20   7   90.57    8.44
  -7 -20  -7   89.87    8.32
  -7 -20   8  137.37   10.34
  -7 -20  -8  129.01    9.96
  -7 -20   9   -1.43    1.68
  -7 -20  -9    2.10    1.69
  -7 -21   0    2.92    2.24
  -7 -21   1   -1.27    1.41
  -7 -21  -1    0.08    1.20
  -7 -21   2    6.71    2.77
  -7 -21  -2    6.45    2.41
  -8   0   0   63.87    5.02
  -8   0   1   -0.66    1.01
  -8   0  -1    0.91    0.65
  -8   0   2    7.88    1.86
  -8   0  -2   11.36    2.22
  -8   0   3    0.59    0.73
  -8   0  -3   -0.02    0.79
  -8   0   4    9.37    2.06
  -8   0  -4   13.25    2.24
  -8   0  -5   -0.08    0.80
  -8   0   5   -0.44    0.91
  -8   0  -6    6.90    1.70
  -8   0   6    7.13    1.66
  -8   0   7   -1.06    1.29
  -8   0  -7   -0.77    0.85
  -8   0  -8   21.05    2.96
  -8   0   8   20.66    2.92
  -8   0  -9    0.14    0.84
  -8   0   9    0.74    1.30
  -8   0  10   44.61    4.48
  -8   0 -10   43.25    4.16
  -8   0 -11   -0.95    1.18
  -8   0  11    0.85    0.79
  -8   0 -12   19.40    2.93
  -8   0  12   16.09    2.78
  -8   0  13    1.49    1.32
  -8   0 -13    0.50    0.77
  -8   0  14   38.91    4.43
  -8   0 -14   32.77    3.83
  -8   0 -15   -0.78    0.81
  -8   0  15   -0.80    1.14
  -8   0  16   80.87    6.50
  -8   0 -16   72.11    5.75
  -8   0 -17   -0.82    0.90
  -8   0  17    1.07    0.91
  -8   0  18   -0.38    0.91
  -8   0 -18    2.12    1.45
  -8   0  19   -0.17    1.01
  -8   0 -19   -0.85    0.87
  -8   0  20    5.27    2.02
  -8   0  21   -1.00    1.17
  -8   0  22   13.63    2.89
  -8   0  23    0.85    1.51
  -8   0  24    3.80    1.08
  -8   0  25   -1.53    2.01
  -8   0  26   18.33    3.99
  -8   0  27    0.47    1.51
  -8   0  28    6.40    2.21
  -8   0  29   -2.02    1.84
  -8   1   0   54.28    4.41
  -8  -1   0   54.04    4.60
  -8   1   1   27.20    3.09
  -8   1  -1   27.95    3.21
  -8  -1   1   24.94    3.27
  -8  -1  -1   26.19    3.23
  -8  -1   2   30.12    3.50
  -8   1  -2   28.47    3.18
  -8  -1  -2   30.56    3.51
  -8   1   2   33.85    3.49
  -8   1  -3   56.42    4.52
  -8  -1  -3   58.39    4.80
  -8   1   3   54.78    4.51
  -8  -1   3   54.77    4.78
  -8  -1   4    6.29    1.68
  -8   1  -4    5.60    1.60
  -8  -1  -4    3.84    1.37
  -8   1   4    5.90    1.85
  -8  -1   5    2.26    1.44
  -8   1  -5   -0.48    0.88
  -8  -1  -5    1.48    1.18
  -8   1   5    1.49    0.76
  -8   1  -6    0.74    0.98
  -8   1   6    0.36    0.77
  -8  -1  -6   -0.71    0.89
  -8  -1   6    0.00    1.00
  -8   1   7   13.57    2.37
  -8   1  -7   20.40    2.69
  -8  -1   7   20.94    3.15
  -8  -1  -7   21.79    2.98
  -8  -1  -8   10.93    2.09
  -8   1   8   13.26    2.46
  -8  -1   8    9.99    2.13
  -8   1  -8   13.76    2.39
  -8   1  -9   13.84    2.35
  -8  -1  -9   15.54    2.59
  -8   1   9   12.50    2.49
  -8  -1   9   13.65    2.46
  -8   1 -10   14.93    2.29
  -8  -1 -10   14.38    2.72
  -8   1  10   18.17    2.73
  -8  -1  10   12.00    2.42
  -8   1 -11    4.36    1.58
  -8  -1 -11    4.86    1.96
  -8   1  11    4.79    1.73
  -8  -1  11    4.67    1.80
  -8  -1 -12   82.63    6.08
  -8   1  12   81.25    6.08
  -8  -1  12   72.10    5.81
  -8   1 -12   83.84    5.82
  -8   1  13   15.11    2.77
  -8   1 -13   11.12    2.29
  -8  -1  13   14.96    2.71
  -8  -1 -13    8.69    2.17
  -8   1 -14   41.14    4.17
  -8  -1 -14   47.16    4.68
  -8   1  14   43.65    4.60
  -8  -1  14   52.06    5.08
  -8  -1 -15    5.67    2.02
  -8   1  15    3.87    1.65
  -8  -1  15    3.42    1.64
  -8  -1 -16    1.60    1.44
  -8   1  16    2.15    1.47
  -8  -1  16    0.10    1.28
  -8  -1  17   46.68    5.22
  -8   1  17   40.27    4.65
  -8  -1 -17   42.54    4.75
  -8   1  18   30.59    4.23
  -8  -1  18   26.95    3.95
  -8  -1 -18   21.54    3.35
  -8  -1 -19   24.87    3.79
  -8   1  19   18.89    3.47
  -8  -1  19   25.91    3.91
  -8  -1 -20   11.16    2.75
  -8   1  20    8.95    2.47
  -8  -1  20    9.62    2.75
  -8   1  21   14.03    3.13
  -8  -1  21   11.76    2.83
  -8  -1 -21   13.69    3.12
  -8   1  22    8.63    2.51
  -8  -1  22   13.11    2.87
  -8  -1 -22    9.83    2.46
  -8   1  23    1.38    1.33
  -8  -1  23    1.69    1.05
  -8  -1  24   53.93    6.26
  -8   1  24   50.46    5.94
  -8   1  25   66.23    7.05
  -8  -1  25   58.82    6.54
  -8   1  26   81.22    8.01
  -8  -1  26   71.04    7.35
  -8   1  27    6.21    2.60
  -8  -1  27    6.57    1.98
  -8   1  28    5.77    1.85
  -8  -1  28    5.21    2.48
  -8   1  29    4.79    2.44
  -8  -1  29   11.65    3.35
  -8   1  30   -1.51    2.29
  -8  -2   0   62.42    5.16
  -8   2   0   66.53    4.73
  -8  -2   1   81.70    5.90
  -8  -2  -1   87.44    6.04
  -8   2   1   79.18    5.19
  -8   2  -1   76.83    5.06
  -8   2  -2  113.95    6.30
  -8  -2   2  108.83    6.91
  -8  -2  -2  113.02    6.99
  -8   2   2  118.11    6.44
  -8  -2   3    4.52    1.43
  -8   2  -3    5.89    1.55
  -8  -2  -3    5.54    1.42
  -8   2   3    4.50    1.46
  -8  -2   4    6.15    1.79
  -8   2  -4    5.18    1.39
  -8  -2  -4    5.24    1.67
  -8   2   4    8.23    1.80
  -8  -2   5   17.59    2.82
  -8   2  -5   23.45    2.88
  -8  -2  -5   21.72    2.95
  -8   2   5   24.79    3.00
  -8   2  -6   90.08    5.74
  -8  -2  -6   95.34    6.46
  -8   2   6   97.03    5.99
  -8  -2   6   95.24    6.48
  -8  -2  -7   -0.42    1.21
  -8   2  -7    1.34    0.88
  -8   2   7    1.09    0.92
  -8  -2   7    1.92    0.96
  -8  -2  -8   28.61    3.53
  -8   2   8   30.04    3.40
  -8   2  -8   27.69    3.07
  -8  -2   8   32.59    3.88
  -8  -2  -9   30.50    3.73
  -8   2   9   34.06    3.79
  -8   2  -9   28.98    3.28
  -8  -2   9   27.82    3.70
  -8  -2 -10   11.87    2.45
  -8   2  10   11.24    2.31
  -8  -2  10    4.97    1.63
  -8  -2 -11    1.20    0.98
  -8   2  11    1.12    0.96
  -8  -2  11    0.54    1.16
  -8  -2 -12   37.75    4.30
  -8   2  12   46.17    4.60
  -8  -2  12   37.46    4.28
  -8  -2 -13  117.22    7.65
  -8   2  13  122.40    7.56
  -8  -2  13  136.50    8.28
  -8  -2 -14   65.80    5.60
  -8   2  14   65.16    5.67
  -8  -2  14   74.08    6.14
  -8  -2 -15   15.51    2.96
  -8   2  15   15.31    2.84
  -8  -2  15   12.97    2.76
  -8   2  16   76.81    6.28
  -8  -2  16   73.46    6.35
  -8  -2 -16   63.53    5.76
  -8   2  17   11.09    2.42
  -8  -2 -17   13.11    2.87
  -8  -2  17   13.38    2.81
  -8   2  18    3.02    1.52
  -8  -2  18    4.97    1.95
  -8  -2 -18    7.12    2.15
  -8  -2 -19    3.58    1.69
  -8   2  19    1.19    1.59
  -8  -2  19    0.28    1.02
  -8  -2 -20   54.64    5.77
  -8   2  20   52.84    5.70
  -8  -2  20   55.43    5.86
  -8   2  21   -0.57    1.17
  -8  -2  21    4.44    2.05
  -8  -2 -21    3.92    1.94
  -8   2  22   -1.10    1.37
  -8  -2  22    0.57    1.25
  -8  -2 -22    0.74    1.16
  -8  -2 -23    8.35    2.63
  -8   2  23    9.70    2.72
  -8  -2  23   13.01    3.02
  -8   2  24    0.63    1.61
  -8  -2 -24    5.46    2.40
  -8  -2  24    1.33    1.31
  -8   2  25   -0.18    1.65
  -8  -2  25    1.11    1.46
  -8  -2 -25   -0.39    1.45
  -8   2  26    1.54    1.48
  -8  -2  26    3.20    1.80
  -8   2  27   47.29    6.15
  -8  -2  27   47.99    6.21
  -8   2  28   40.41    6.02
  -8  -2  28   52.25    6.45
  -8   2  29    2.68    1.87
  -8   2  30   22.37    4.40
  -8   3   0   12.40    2.10
  -8  -3   0   15.98    2.85
  -8  -3   1  255.66   11.10
  -8  -3  -1  258.13   11.05
  -8   3   1  238.87    9.22
  -8   3  -1  251.26    9.28
  -8   3  -2    0.62    0.65
  -8  -3   2    4.27    1.41
  -8  -3  -2    2.55    1.22
  -8   3   2    2.49    1.05
  -8   3  -3   49.66    3.90
  -8  -3   3   56.70    5.03
  -8  -3  -3   53.74    5.05
  -8   3   3   52.02    4.11
  -8  -3  -4   41.29    4.33
  -8   3   4   43.65    3.81
  -8  -3   4   50.45    4.72
  -8  -3   5    7.01    1.85
  -8   3   5    9.94    1.94
  -8  -3  -5   10.00    2.06
  -8  -3   6    0.11    1.02
  -8   3   6    0.58    0.67
  -8  -3  -6    1.76    0.99
  -8  -3   7    1.91    1.52
  -8  -3  -7   -0.64    1.20
  -8   3   7    1.81    1.16
  -8  -3  -8    3.51    1.55
  -8   3   8    5.75    1.81
  -8  -3   8    4.50    1.57
  -8  -3  -9   13.25    2.60
  -8   3   9   19.80    2.88
  -8  -3   9   19.84    2.98
  -8  -3 -10    0.42    1.04
  -8   3  10    1.29    0.98
  -8  -3  10    0.31    1.10
  -8  -3 -11   84.34    6.30
  -8   3  11   92.90    6.32
  -8  -3  11   83.61    6.50
  -8   3  12    5.02    2.04
  -8  -3 -12    7.02    2.32
  -8  -3  12    4.51    2.00
  -8  -3 -13  335.47   13.70
  -8   3  13  362.19   13.55
  -8  -3  13  356.29   14.13
  -8  -3 -14    1.41    1.61
  -8   3  14    3.88    1.88
  -8  -3  14    3.30    2.01
  -8   3  15   55.57    5.31
  -8  -3 -15   47.63    4.96
  -8  -3  15   58.99    5.64
  -8  -3 -16    9.26    2.39
  -8   3  16   10.69    2.46
  -8  -3  16   10.47    2.77
  -8   3  17   -1.77    1.50
  -8  -3 -17   -0.42    1.15
  -8   3  18   56.30    5.73
  -8  -3  18   60.82    5.88
  -8  -3 -18   62.81    6.08
  -8  -3 -19   10.45    2.91
  -8   3  19   10.36    2.52
  -8  -3  19   17.46    3.35
  -8  -3 -20    0.91    1.79
  -8   3  20   -0.68    1.99
  -8  -3  20    3.34    1.66
  -8   3  21   -0.30    1.53
  -8  -3 -21    0.30    1.58
  -8  -3  21    2.49    1.58
  -8   3  22    9.05    2.29
  -8  -3  22    9.58    2.76
  -8  -3 -22    7.37    2.41
  -8  -3 -23    1.50    1.43
  -8   3  23    1.26    1.55
  -8  -3  23    1.99    1.48
  -8   3  24   11.22    2.76
  -8  -3 -24   16.65    3.42
  -8  -3  24   12.20    2.98
  -8   3  25   56.47    6.50
  -8  -3  25   64.29    6.82
  -8  -3 -25   73.37    7.67
  -8   3  26   19.62    4.25
  -8  -3  26   35.49    5.34
  -8  -3 -26   24.62    4.99
  -8  -3 -27  195.69   13.44
  -8   3  27  147.43   11.10
  -8  -3  27  158.39   11.32
  -8   3  28    7.78    2.79
  -8  -3  28    3.66    1.96
  -8   3  29    8.99    2.75
  -8   3  30    7.01    2.61
  -8  -4   0  450.54   15.59
  -8  -4   1   33.36    4.01
  -8  -4  -1   32.46    3.99
  -8  -4   2   74.42    5.93
  -8  -4  -2   71.32    5.88
  -8  -4   3   19.11    3.08
  -8  -4  -3   15.77    2.77
  -8  -4   4   29.48    3.88
  -8  -4  -4   24.77    3.37
  -8  -4  -5   85.10    6.32
  -8  -4   5   95.32    6.73
  -8   4   6   47.06    4.03
  -8  -4  -6   46.60    4.54
  -8  -4   6   38.57    4.35
  -8  -4   7    1.48    1.16
  -8  -4  -7    4.30    1.71
  -8   4   7    1.22    1.02
  -8   4   8   61.44    4.74
  -8  -4  -8   60.14    5.36
  -8  -4   8   51.41    4.98
  -8   4   9   51.15    4.50
  -8  -4   9   54.17    5.15
  -8  -4  -9   54.81    5.20
  -8  -4 -10    0.66    1.06
  -8   4  10   -0.13    0.70
  -8  -4  10    0.19    0.94
  -8   4  11   -0.61    0.95
  -8  -4 -11   -1.21    1.28
  -8  -4  11    0.90    1.40
  -8  -4 -12   74.35    6.31
  -8   4  12   90.31    6.33
  -8  -4  12   95.88    7.05
  -8   4  13   17.29    2.92
  -8  -4  13   21.26    3.45
  -8  -4 -13   12.14    2.75
  -8   4  14  260.41   11.61
  -8  -4 -14  252.56   11.98
  -8  -4  14  258.34   12.14
  -8   4  15   49.20    5.05
  -8  -4 -15   55.81    5.50
  -8  -4  15   54.63    5.45
  -8   4  16   67.22    5.96
  -8  -4  16   65.58    6.05
  -8  -4 -16   62.42    5.96
  -8   4  17    7.52    2.21
  -8  -4 -17   10.01    2.49
  -8  -4  17   16.23    3.28
  -8   4  18   32.21    4.29
  -8  -4  18   33.51    4.50
  -8  -4 -18   37.96    4.86
  -8  -4 -19   46.96    5.32
  -8   4  19   45.54    5.30
  -8  -4  19   50.99    5.69
  -8  -4 -20   18.19    3.46
  -8   4  20   11.44    2.56
  -8  -4  20   17.98    3.44
  -8   4  21    8.99    2.62
  -8  -4 -21   18.37    3.64
  -8  -4  21   13.80    3.08
  -8   4  22   23.61    4.15
  -8  -4  22   26.83    4.17
  -8  -4 -22   31.26    4.76
  -8   4  23    6.76    2.49
  -8  -4  23    9.01    2.51
  -8  -4 -23   15.97    3.61
  -8  -4 -24   22.45    4.31
  -8   4  24   27.80    4.47
  -8  -4  24   26.80    4.30
  -8   4  25    5.53    2.36
  -8  -4  25   15.26    3.57
  -8  -4 -25   14.47    3.59
  -8   4  26   45.50    6.06
  -8  -4  26   43.37    5.84
  -8  -4 -26   63.27    7.59
  -8   4  27    2.86    1.71
  -8  -4 -27    4.85    2.19
  -8  -4  27    3.33    1.85
  -8   4  28   45.82    6.16
  -8  -4 -28   64.35    8.10
  -8  -4 -29   58.62    7.99
  -8  -5   0  474.38   16.39
  -8  -5   1   -0.63    1.58
  -8  -5  -1    7.18    2.50
  -8  -5   2  342.58   13.51
  -8  -5  -2  309.65   13.05
  -8  -5   3    9.69    2.23
  -8  -5  -3   10.82    2.42
  -8  -5   4    5.13    1.78
  -8  -5  -4    3.25    1.06
  -8  -5   5   14.45    2.70
  -8  -5  -5   10.09    2.18
  -8  -5  -6   26.63    3.57
  -8  -5   6   26.74    3.68
  -8  -5   7   -0.48    1.01
  -8  -5  -7   -0.14    1.42
  -8  -5   8   27.86    3.80
  -8  -5  -8   32.48    3.97
  -8  -5   9   21.99    3.57
  -8  -5  -9   19.96    3.32
  -8  -5 -10    0.43    1.02
  -8  -5  10   -0.61    0.97
  -8  -5 -11    1.39    1.23
  -8  -5  11    2.28    1.79
  -8  -5 -12  427.14   16.19
  -8  -5  12  448.73   16.42
  -8  -5  13   15.73    3.36
  -8  -5 -13   16.89    3.41
  -8  -5 -14  419.85   16.13
  -8  -5  14  431.02   16.28
  -8  -5 -15   21.95    3.79
  -8  -5  15   24.03    3.88
  -8  -5 -16   72.87    6.49
  -8  -5  16   78.76    6.73
  -8  -5 -17   15.92    3.21
  -8  -5  17   23.02    3.67
  -8  -5  18    9.53    2.51
  -8  -5 -18    6.69    2.28
  -8  -5  19    2.11    1.88
  -8  -5 -19    3.90    2.23
  -8  -5 -20    4.57    1.96
  -8  -5  20    4.08    1.57
  -8  -5 -21    3.29    2.14
  -8  -5  21    5.10    2.02
  -8  -5  22    2.67    1.80
  -8  -5 -22   -0.26    1.16
  -8  -5  23    6.12    2.32
  -8  -5 -23    5.03    2.01
  -8  -5 -24    9.33    3.03
  -8  -5  24    9.33    2.81
  -8  -5 -25    2.82    2.13
  -8  -5  25    1.13    1.35
  -8  -5  26  160.57   11.09
  -8  -5 -26  198.41   13.54
  -8  -5  27   13.73    3.81
  -8  -5 -27    5.79    3.02
  -8  -5 -28  160.42   12.99
  -8  -5 -29   12.14    3.95
  -8  -5 -30   14.51    4.02
  -8  -6   0   33.86    4.26
  -8  -6   1  186.56    9.93
  -8  -6  -1  182.74    9.88
  -8  -6   2   38.28    4.55
  -8  -6  -2   36.66    4.29
  -8  -6   3   10.04    2.29
  -8  -6  -3    7.37    1.94
  -8  -6   4    9.22    2.39
  -8  -6  -4    7.96    1.96
  -8  -6   5   40.96    4.59
  -8  -6  -5   39.36    4.45
  -8  -6  -6   -0.68    1.49
  -8  -6   6    0.71    1.08
  -8  -6   7    3.66    1.54
  -8  -6  -7    5.72    1.78
  -8  -6   8    0.11    0.88
  -8  -6  -8    1.09    1.28
  -8  -6   9    3.41    1.40
  -8  -6  -9    8.64    2.43
  -8  -6  10    8.45    2.37
  -8  -6 -10   10.60    2.42
  -8  -6 -11   43.06    4.93
  -8  -6  11   43.77    4.78
  -8  -6 -12   62.16    5.91
  -8  -6  12   60.41    5.82
  -8  -6 -13   75.70    6.59
  -8  -6  13   71.50    6.30
  -8  -6 -14   22.58    3.70
  -8  -6  14   28.08    4.22
  -8  -6 -15   99.12    7.58
  -8  -6  15   91.51    7.23
  -8  -6 -16    5.57    2.22
  -8  -6  16    4.84    1.97
  -8  -6 -17    2.18    1.68
  -8  -6  17    0.92    1.18
  -8  -6 -18    3.96    1.75
  -8  -6  18    3.50    2.23
  -8  -6  19   43.55    5.32
  -8  -6 -19   45.46    5.39
  -8  -6 -20   -0.38    1.55
  -8  -6  20    1.90    1.82
  -8  -6 -21   11.74    3.00
  -8  -6  21   17.90    3.38
  -8  -6 -22    2.71    1.95
  -8  -6  22    6.21    2.18
  -8  -6  23    2.85    1.79
  -8  -6 -23    2.00    1.98
  -8  -6 -24   20.53    4.50
  -8  -6  24   17.16    3.57
  -8  -6  25   64.48    6.80
  -8  -6 -25   70.42    7.92
  -8  -6  26   32.29    5.03
  -8  -6 -26   22.36    4.81
  -8  -6 -27   21.54    4.90
  -8  -6 -28    6.65    3.39
  -8  -6 -29   14.58    4.06
  -8  -7   0   41.80    4.93
  -8  -7   1  696.96   21.37
  -8  -7  -1  729.31   21.87
  -8  -7   2    2.29    1.89
  -8  -7  -2    0.89    1.14
  -8  -7   3   26.53    3.72
  -8  -7  -3   26.75    3.78
  -8  -7   4    0.26    1.19
  -8  -7  -4   -1.06    1.44
  -8  -7  -5    6.74    1.91
  -8  -7   5    9.59    2.42
  -8  -7  -6   21.39    3.41
  -8  -7   6   29.82    4.02
  -8  -7   7    0.05    0.93
  -8  -7  -7    3.15    1.37
  -8  -7   8   13.62    2.64
  -8  -7  -8   16.06    3.05
  -8  -7   9   12.63    2.71
  -8  -7  -9   13.84    2.80
  -8  -7  10   30.28    4.09
  -8  -7 -10   31.51    4.16
  -8  -7 -11   77.64    6.67
  -8  -7  11   78.24    6.58
  -8  -7 -12   12.24    2.98
  -8  -7  12   13.83    3.04
  -8  -7 -13  515.74   18.70
  -8  -7  13  542.43   18.88
  -8  -7 -14   18.04    3.50
  -8  -7  14   13.59    3.16
  -8  -7 -15  294.02   13.86
  -8  -7  15  326.04   14.35
  -8  -7 -16   27.83    4.34
  -8  -7  16   18.89    3.56
  -8  -7 -17    8.17    2.44
  -8  -7  17   11.75    2.84
  -8  -7 -18   -0.05    1.06
  -8  -7  18   -0.27    1.24
  -8  -7  19   -0.04    1.02
  -8  -7 -19    1.66    1.40
  -8  -7 -20    1.99    1.11
  -8  -7  20    3.54    1.99
  -8  -7 -21   12.93    3.20
  -8  -7  21   10.80    2.79
  -8  -7 -22    2.71    1.79
  -8  -7  22    1.76    1.76
  -8  -7  23    5.11    2.54
  -8  -7 -23    2.39    1.67
  -8  -7  24   11.40    3.20
  -8  -7 -24   13.06    3.73
  -8  -7  25  104.23    8.73
  -8  -7 -25  102.74    9.75
  -8  -7 -26    0.93    2.47
  -8  -7 -27  252.04   16.25
  -8  -7 -28    0.79    1.93
  -8  -8   0   26.36    3.92
  -8  -8   1   81.08    6.77
  -8  -8  -1   87.82    6.98
  -8  -8   2   10.54    2.63
  -8  -8  -2    6.45    2.27
  -8  -8   3   72.39    6.35
  -8  -8  -3   62.61    5.78
  -8  -8   4    4.74    1.54
  -8  -8  -4    3.29    1.38
  -8  -8  -5   27.71    3.89
  -8  -8   5   29.82    4.03
  -8  -8  -6    0.39    0.98
  -8  -8   6   -0.21    0.95
  -8  -8  -7    3.03    1.82
  -8  -8   7    1.55    1.15
  -8  -8   8   12.56    2.60
  -8  -8  -8   17.17    3.05
  -8  -8   9   13.32    2.66
  -8  -8  -9   11.37    2.53
  -8  -8  10   15.58    3.03
  -8  -8 -10   12.91    2.87
  -8  -8 -11   91.14    7.36
  -8  -8  11   82.37    6.90
  -8  -8 -12    3.55    1.81
  -8  -8  12    3.51    1.24
  -8  -8 -13  119.10    8.62
  -8  -8  13  121.92    8.55
  -8  -8 -14    8.82    2.91
  -8  -8  14    7.35    2.29
  -8  -8 -15   71.13    6.65
  -8  -8  15   73.87    6.71
  -8  -8 -16   22.52    3.96
  -8  -8  16   26.21    4.08
  -8  -8 -17   19.35    3.51
  -8  -8  17   19.14    3.68
  -8  -8 -18    0.87    1.47
  -8  -8  18    2.50    1.89
  -8  -8  19   11.85    2.73
  -8  -8 -19    9.61    3.12
  -8  -8 -20   16.06    3.51
  -8  -8  20   17.82    3.76
  -8  -8 -21    0.32    1.25
  -8  -8  21    3.47    2.07
  -8  -8 -22   20.80    4.18
  -8  -8  22   18.45    3.73
  -8  -8 -23    6.81    2.61
  -8  -8  23    4.41    2.30
  -8  -8  24   27.91    4.72
  -8  -8 -24   33.03    5.43
  -8  -8 -25   30.43    5.23
  -8  -8 -26    6.92    3.33
  -8  -8 -27   64.57    8.21
  -8  -9   0  508.26   18.16
  -8  -9   1    8.42    2.66
  -8  -9  -1    9.60    2.83
  -8  -9   2   97.30    7.39
  -8  -9  -2   93.39    7.29
  -8  -9   3   10.16    2.57
  -8  -9  -3    6.91    2.09
  -8  -9   4   18.15    3.34
  -8  -9  -4   20.62    3.30
  -8  -9  -5    0.59    1.26
  -8  -9   5    0.39    1.17
  -8  -9  -6    3.06    1.56
  -8  -9   6    4.06    1.81
  -8  -9  -7    0.92    1.22
  -8  -9   7    0.32    1.01
  -8  -9   8   17.84    3.20
  -8  -9  -8   17.13    2.98
  -8  -9   9   19.77    3.32
  -8  -9  -9   18.19    3.42
  -8  -9  10    9.22    2.43
  -8  -9 -10    6.57    1.92
  -8  -9  11    2.92    1.46
  -8  -9 -11    5.19    1.76
  -8  -9 -12  143.54    9.43
  -8  -9  12  133.75    8.87
  -8  -9 -13    4.87    2.46
  -8  -9  13    1.96    1.84
  -8  -9 -14  289.63   13.96
  -8  -9  14  282.94   13.54
  -8  -9 -15    5.87    2.93
  -8  -9  15    7.70    2.48
  -8  -9 -16   72.87    7.01
  -8  -9  16   82.49    7.19
  -8  -9 -17    0.80    1.23
  -8  -9  17    1.04    1.46
  -8  -9 -18    3.10    1.89
  -8  -9  18    9.67    2.52
  -8  -9 -19    6.17    2.17
  -8  -9  19    1.10    1.09
  -8  -9  20    7.31    2.62
  -8  -9 -20    3.98    1.85
  -8  -9 -21    7.11    2.51
  -8  -9  21    7.11    2.43
  -8  -9 -22   48.25    6.37
  -8  -9  22   39.83    5.28
  -8  -9 -23   11.84    3.63
  -8  -9  23   12.25    3.34
  -8  -9 -24   38.28    6.04
  -8  -9 -25   12.34    3.52
  -8  -9 -26  131.45   11.52
  -8 -10   0   50.91    5.61
  -8 -10   1   92.84    7.44
  -8 -10  -1  115.06    8.31
  -8 -10   2   74.21    6.59
  -8 -10  -2   67.99    6.40
  -8 -10   3   10.40    2.61
  -8 -10  -3    7.80    2.02
  -8 -10   4    1.40    0.94
  -8 -10  -4   -0.44    1.13
  -8 -10  -5   24.03    3.66
  -8 -10   5   24.41    3.78
  -8 -10  -6    8.24    2.65
  -8 -10   6   14.13    2.80
  -8 -10  -7    1.22    1.33
  -8 -10   7    1.21    1.25
  -8 -10   8   21.30    3.54
  -8 -10  -8   14.88    2.99
  -8 -10   9   -0.86    1.72
  -8 -10  -9    0.37    0.99
  -8 -10  10    0.78    1.15
  -8 -10 -10    0.08    1.48
  -8 -10  11    0.75    1.16
  -8 -10 -11    1.30    1.26
  -8 -10  12   41.36    4.98
  -8 -10 -12   43.45    5.20
  -8 -10 -13   22.14    3.73
  -8 -10  13   17.17    3.39
  -8 -10  14   19.23    3.70
  -8 -10 -14   15.99    3.60
  -8 -10 -15  194.83   11.55
  -8 -10  15  199.41   11.42
  -8 -10 -16   10.29    2.80
  -8 -10  16    8.54    2.69
  -8 -10 -17   33.56    4.90
  -8 -10  17   32.88    4.77
  -8 -10 -18    7.33    2.51
  -8 -10  18    1.43    1.30
  -8 -10  19   66.77    6.70
  -8 -10 -19   56.88    6.52
  -8 -10  20    0.14    1.25
  -8 -10 -20    1.26    1.31
  -8 -10  21   16.63    3.65
  -8 -10 -21   22.22    4.28
  -8 -10 -22   10.04    3.11
  -8 -10  22    5.88    2.53
  -8 -10 -23    1.11    1.28
  -8 -10 -24   14.34    3.75
  -8 -11   0    7.41    2.77
  -8 -11   1  129.10    8.89
  -8 -11  -1  120.28    8.59
  -8 -11   2    3.38    1.38
  -8 -11  -2   -1.40    1.44
  -8 -11   3    0.54    1.40
  -8 -11  -3    2.87    1.97
  -8 -11   4    5.14    2.05
  -8 -11  -4    5.62    2.34
  -8 -11  -5    5.46    1.73
  -8 -11   5    6.16    2.16
  -8 -11  -6    0.87    1.18
  -8 -11   6   -0.98    1.47
  -8 -11  -7   11.94    2.65
  -8 -11   7    9.73    2.34
  -8 -11   8    2.68    1.69
  -8 -11  -8    1.32    1.27
  -8 -11   9    0.12    1.02
  -8 -11  -9    2.21    1.53
  -8 -11  10    6.51    2.22
  -8 -11 -10    4.20    1.78
  -8 -11  11    6.93    2.25
  -8 -11 -11   19.46    3.69
  -8 -11  12   30.80    4.38
  -8 -11 -12   25.59    4.13
  -8 -11 -13   82.09    7.42
  -8 -11  13   84.32    7.27
  -8 -11 -14    2.44    1.89
  -8 -11  14    4.83    2.30
  -8 -11 -15   31.71    4.70
  -8 -11  15   42.44    5.43
  -8 -11 -16   12.18    3.12
  -8 -11  16    8.90    2.75
  -8 -11 -17   22.70    4.09
  -8 -11  17   27.83    4.46
  -8 -11 -18   10.52    3.02
  -8 -11  18    5.45    2.05
  -8 -11 -19    4.44    2.09
  -8 -11  19    4.82    1.87
  -8 -11 -20    0.42    1.22
  -8 -11  20    1.36    1.72
  -8 -11  21   47.07    5.76
  -8 -11 -21   44.16    6.16
  -8 -11 -22   22.81    4.52
  -8 -11 -23   -0.63    1.44
  -8 -12   0   10.11    2.90
  -8 -12   1    5.11    2.36
  -8 -12  -1   -0.50    1.47
  -8 -12   2   35.49    4.87
  -8 -12  -2   35.01    4.70
  -8 -12   3   29.30    4.34
  -8 -12  -3   22.84    3.89
  -8 -12   4    1.12    1.41
  -8 -12  -4    1.68    1.55
  -8 -12  -5   -1.88    1.67
  -8 -12   5   -0.18    1.46
  -8 -12  -6   -0.70    1.51
  -8 -12   6    1.27    1.32
  -8 -12  -7    7.83    2.37
  -8 -12   7    6.50    2.09
  -8 -12   8    0.68    1.15
  -8 -12  -8   -0.54    1.00
  -8 -12   9    2.68    1.87
  -8 -12  -9   -1.75    1.79
  -8 -12  10    0.37    1.37
  -8 -12 -10   -2.91    2.11
  -8 -12  11   -1.40    0.98
  -8 -12 -11    0.15    1.43
  -8 -12  12   -0.15    1.04
  -8 -12 -12    5.56    2.10
  -8 -12  13    6.42    2.72
  -8 -12 -13    2.12    1.49
  -8 -12 -14    4.42    2.18
  -8 -12  14    7.81    2.67
  -8 -12  15   -0.07    1.13
  -8 -12 -15   -0.16    1.21
  -8 -12 -16   68.31    7.00
  -8 -12  16   90.75    7.87
  -8 -12 -17    7.92    2.72
  -8 -12  17    8.51    2.65
  -8 -12 -18    9.33    2.84
  -8 -12  18    4.30    1.84
  -8 -12 -19    1.03    2.01
  -8 -12  19   -0.54    1.15
  -8 -12 -20    5.35    2.00
  -8 -12  20    7.87    2.48
  -8 -12 -21   27.87    4.88
  -8 -13   0    3.15    1.98
  -8 -13   1    1.52    1.25
  -8 -13  -1    2.72    1.58
  -8 -13   2   -0.43    1.50
  -8 -13  -2   -0.33    1.57
  -8 -13   3   55.23    6.02
  -8 -13  -3   51.45    5.94
  -8 -13   4   38.47    5.07
  -8 -13  -4   29.58    4.49
  -8 -13  -5    0.34    1.25
  -8 -13   5   -3.22    1.98
  -8 -13  -6   14.11    3.13
  -8 -13   6   11.34    2.96
  -8 -13  -7    3.26    1.15
  -8 -13   7    2.15    1.30
  -8 -13   8   42.85    5.39
  -8 -13  -8   42.08    5.29
  -8 -13   9   -0.03    1.18
  -8 -13  -9    1.15    1.06
  -8 -13  10    5.72    2.02
  -8 -13 -10    4.32    1.81
  -8 -13 -11   51.58    5.88
  -8 -13  11   43.48    5.24
  -8 -13  12   32.33    4.75
  -8 -13 -12   39.16    5.33
  -8 -13  13   19.20    3.66
  -8 -13 -13   15.88    3.41
  -8 -13  14    6.66    2.23
  -8 -13 -14    9.19    2.80
  -8 -13 -15    4.79    2.02
  -8 -13  15   10.77    2.92
  -8 -13 -16   21.53    4.09
  -8 -13  16   21.21    3.93
  -8 -13 -17   -1.37    1.44
  -8 -13  17    2.78    1.73
  -8 -13 -18   24.08    4.24
  -8 -13  18   31.45    4.75
  -8 -13 -19    0.00    1.36
  -8 -13 -20    3.56    2.02
  -8 -14   0  110.42    8.61
  -8 -14   1   35.67    4.95
  -8 -14  -1   44.12    5.46
  -8 -14   2   -0.40    1.59
  -8 -14  -2    0.93    1.10
  -8 -14   3   11.31    2.83
  -8 -14  -3    4.81    1.91
  -8 -14   4   37.23    5.00
  -8 -14  -4   40.32    5.12
  -8 -14  -5   10.44    2.68
  -8 -14   5   10.83    2.97
  -8 -14  -6    3.88    1.79
  -8 -14   6    2.56    1.98
  -8 -14  -7   -0.15    1.30
  -8 -14   7   -1.07    1.31
  -8 -14  -8    3.18    1.97
  -8 -14   8    0.09    1.18
  -8 -14   9    5.61    2.39
  -8 -14  -9    2.20    1.83
  -8 -14  10   12.35    2.79
  -8 -14 -10   10.73    2.80
  -8 -14  11    1.29    1.15
  -8 -14 -11    1.98    1.74
  -8 -14  12    3.28    2.05
  -8 -14 -12    0.05    1.06
  -8 -14  13   30.44    4.73
  -8 -14 -13   30.96    4.81
  -8 -14  14   33.61    4.84
  -8 -14 -14   51.90    6.07
  -8 -14 -15   25.97    4.54
  -8 -14  15   21.01    3.97
  -8 -14  16    5.83    2.23
  -8 -14 -16    6.09    2.80
  -8 -14 -17    1.83    2.10
  -8 -14 -18    9.67    3.03
  -8 -15   0   59.20    6.43
  -8 -15   1   -0.29    1.04
  -8 -15  -1    1.98    1.24
  -8 -15   2   19.40    3.86
  -8 -15  -2   17.18    3.71
  -8 -15   3   13.13    3.02
  -8 -15  -3    7.23    2.29
  -8 -15   4    7.76    2.57
  -8 -15  -4    5.34    2.18
  -8 -15  -5   50.97    5.90
  -8 -15   5   47.56    5.80
  -8 -15  -6    0.52    1.86
  -8 -15   6   -0.31    1.77
  -8 -15  -7    1.65    1.77
  -8 -15   7   -0.75    1.17
  -8 -15  -8    0.74    1.55
  -8 -15   8    3.45    2.41
  -8 -15   9   67.40    6.94
  -8 -15  -9   67.01    6.95
  -8 -15  10   31.47    4.84
  -8 -15 -10   36.62    5.09
  -8 -15  11    3.28    1.87
  -8 -15 -11    3.13    2.08
  -8 -15 -12   46.47    5.85
  -8 -15  12   56.06    6.26
  -8 -15  13   19.19    3.77
  -8 -15 -13   13.71    3.36
  -8 -15  14   38.69    5.26
  -8 -15 -14   45.35    5.89
  -8 -15 -15   35.27    5.29
  -8 -15 -16   10.26    3.07
  -8 -16   0   90.83    8.17
  -8 -16   1  144.45   10.24
  -8 -16  -1  146.14   10.33
  -8 -16   2   11.32    2.96
  -8 -16  -2   12.71    3.30
  -8 -16   3    2.10    1.48
  -8 -16  -3   -0.15    1.49
  -8 -16   4   18.87    3.83
  -8 -16  -4   15.29    3.22
  -8 -16  -5   22.43    3.94
  -8 -16   5   28.24    4.51
  -8 -16  -6   18.32    3.67
  -8 -16   6   17.39    3.57
  -8 -16  -7    0.65    1.11
  -8 -16   7    1.87    1.54
  -8 -16  -8   18.08    3.87
  -8 -16   8   12.80    3.25
  -8 -16   9   31.99    4.86
  -8 -16  -9   29.54    4.67
  -8 -16  10    2.45    1.80
  -8 -16 -10    1.77    1.66
  -8 -16  11    2.98    2.07
  -8 -16 -11   -0.97    1.42
  -8 -16  12    0.10    2.23
  -8 -16 -12    0.12    2.06
  -8 -16 -13  142.67   10.52
  -8 -17   0    3.01    2.60
  -8 -17   1  180.28   11.81
  -8 -17  -1  191.65   12.01
  -8 -17   2   16.72    3.98
  -8 -17  -2   24.55    4.34
  -8 -17   3   14.28    3.81
  -8 -17  -3    8.06    2.41
  -8 -17   4   59.55    6.79
  -8 -17  -4   54.96    6.31
  -8 -17   5   -0.69    1.92
  -8 -17  -5   -0.92    1.20
  -8 -17  -6   13.00    3.10
  -8 -17   6   13.02    3.32
  -8 -17  -7    3.77    2.14
  -8 -17   7    0.29    1.21
  -8 -17  -8   29.33    4.72
  -8 -17   8   36.55    5.17
  -8 -17   9    8.12    2.36
  -8 -17  -9    5.19    2.41
  -8 -17 -10   34.56    5.23
  -8 -18   0  130.34   10.05
  -8 -18   1    5.61    2.51
  -8 -18  -1    3.48    2.79
  -8 -18   2   58.23    6.66
  -8 -18  -2   66.70    7.26
  -8 -18   3    0.90    1.34
  -8 -18  -3    1.84    1.74
  -8 -18  -4   18.68    3.75
  -9   0   5    1.10    1.21
  -9   0   6  229.10   10.63
  -9   0   7    1.26    1.44
  -9   0   8  114.64    7.43
  -9   0   9   -0.32    1.06
  -9   0  10   13.43    2.63
  -9   0  11   -0.40    0.83
  -9   0  12   52.89    5.27
  -9   0  13    2.10    1.40
  -9   0  14   11.27    2.71
  -9   0  15   -1.77    1.75
  -9   0  16   28.44    4.05
  -9   0  17   -0.12    1.20
  -9   0  18    8.84    2.76
  -9   0  19    2.21    2.36
  -9   0  20  183.46   11.28
  -9   0  21    2.46    2.15
  -9   0  22   79.74    7.47
  -9   0  23   -0.98    1.48
  -9   0  24    5.58    1.90
  -9  -1   0   -3.04    2.03
  -9  -1   1   24.10    3.14
  -9  -1  -1   26.06    3.45
  -9  -1  -2   47.93    4.70
  -9  -1   2   53.38    4.90
  -9  -1   3    0.52    1.32
  -9  -1  -3    0.84    1.16
  -9  -1   4   88.80    6.56
  -9  -1   5  207.61   10.21
  -9  -1   6  393.35   14.66
  -9  -1   7  223.90   10.89
  -9  -1   8  337.59   13.65
  -9  -1   9   77.70    6.40
  -9  -1  10   30.37    3.88
  -9  -1  11    4.02    1.76
  -9  -1  12   46.44    5.03
  -9  -1  13    1.58    1.60
  -9  -1  14    3.24    1.70
  -9  -1  15   10.70    2.74
  -9  -1  16   13.22    3.01
  -9  -1  17    4.33    2.23
  -9  -1  18  106.62    8.21
  -9  -1  19  133.68    9.40
  -9  -1  20  204.31   11.82
  -9  -1  21  138.62    9.85
  -9  -1  22  129.38    9.74
  -9  -1  23   17.89    3.62
  -9  -1  24    1.53    1.46
  -9  -1  25    2.92    1.91
  -9  -1  26    6.03    2.55
  -9  -2   0   -2.74    1.82
  -9  -2   1   14.01    2.45
  -9  -2  -1   10.82    2.39
  -9  -2   2    9.67    1.96
  -9  -2  -2   16.48    2.97
  -9  -2   3    2.67    1.10
  -9  -2  -3    0.47    1.17
  -9  -2   4   -0.74    1.46
  -9  -2  -4    0.03    0.88
  -9  -2  -5   40.22    4.49
  -9  -2   5   42.44    4.60
  -9  -2  -6   24.25    3.68
  -9  -2   6   21.06    3.61
  -9  -2  -7  217.77   10.62
  -9  -2   7  216.51   10.78
  -9  -2  -8   47.71    4.95
  -9  -2   8   53.88    5.28
  -9  -2   9   13.13    2.79
  -9  -2  10    0.80    1.31
  -9  -2  11    1.07    1.61
  -9  -2  12   -1.68    1.40
  -9  -2  13   13.24    2.91
  -9  -2  14    0.87    1.02
  -9  -2  15    4.38    2.13
  -9  -2  16    8.83    2.27
  -9  -2  17    1.00    1.29
  -9  -2  18    8.23    2.43
  -9  -2  19   35.50    4.85
  -9  -2  20    6.84    2.57
  -9  -2  21   69.11    6.94
  -9  -2  22   13.13    3.24
  -9  -2  23    0.65    1.36
  -9  -2  24    8.92    2.90
  -9  -2  25    1.31    1.36
  -9  -3   0   -2.26    1.84
  -9  -3   1    3.58    1.43
  -9  -3  -1    6.96    2.14
  -9  -3   2    3.45    1.09
  -9  -3  -2    3.90    1.40
  -9  -3   3    2.73    1.38
  -9  -3  -3    0.48    1.02
  -9  -3   4    3.65    1.43
  -9  -3  -4    2.43    1.35
  -9  -3  -5  102.71    7.25
  -9  -3   5   99.10    7.18
  -9  -3  -6   57.25    5.53
  -9  -3   6   64.84    5.86
  -9  -3  -7  233.13   11.36
  -9  -3   7  261.04   11.99
  -9  -3  -8   24.30    3.49
  -9  -3   8   22.09    3.56
  -9  -3  -9   54.31    5.36
  -9  -3   9   64.38    5.88
  -9  -3 -10    0.55    0.98
  -9  -3  10    0.80    1.20
  -9  -3 -11   28.89    3.90
  -9  -3  11   40.39    4.74
  -9  -3 -12    6.64    1.85
  -9  -3  12    9.84    2.35
  -9  -3 -13   -0.61    0.97
  -9  -3  13    0.92    1.10
  -9  -3  14    2.15    1.51
  -9  -3  15   22.88    3.67
  -9  -3  16   13.16    2.92
  -9  -3  17   35.45    4.70
  -9  -3  18    2.00    1.74
  -9  -3  19  106.92    8.46
  -9  -3  20   53.45    6.01
  -9  -3  21   59.89    6.39
  -9  -3  22    1.20    1.27
  -9  -3  23    5.01    2.37
  -9  -3  24   -0.34    1.55
  -9  -4   0    0.54    0.99
  -9  -4   1   12.24    2.41
  -9  -4  -1   12.89    2.53
  -9  -4   2   -1.69    1.44
  -9  -4  -2    0.38    1.12
  -9  -4   3    6.68    1.88
  -9  -4  -3    9.61    2.32
  -9  -4   4    1.72    1.00
  -9  -4  -4    1.14    1.31
  -9  -4   5    6.31    2.00
  -9  -4  -5   10.98    2.45
  -9  -4   6    7.95    2.36
  -9  -4  -6    4.91    1.91
  -9  -4   7   19.80    3.46
  -9  -4  -7   21.33    3.44
  -9  -4  -8    5.35    1.93
  -9  -4   8    2.54    1.24
  -9  -4   9    7.00    1.94
  -9  -4  -9   10.23    2.33
  -9  -4 -10    3.76    1.61
  -9  -4  10    1.60    0.95
  -9  -4 -11    3.21    1.67
  -9  -4  11    3.17    1.56
  -9  -4 -12    4.42    1.95
  -9  -4  12    0.82    1.41
  -9  -4 -13   10.43    2.58
  -9  -4  13    7.80    2.38
  -9  -4 -14   18.67    3.42
  -9  -4  14   24.25    3.87
  -9  -4 -15    1.56    1.49
  -9  -4  15    0.89    1.12
  -9  -4 -16    0.78    1.16
  -9  -4  16   -0.67    1.00
  -9  -4  17   28.66    4.32
  -9  -4  18   22.60    3.93
  -9  -4  19   17.24    3.53
  -9  -4  20    3.26    1.73
  -9  -4  21    4.28    2.19
  -9  -4  22    5.90    2.46
  -9  -4  23    7.43    2.41
  -9  -5   0    0.08    0.96
  -9  -5   1    6.96    2.04
  -9  -5  -1    8.77    2.39
  -9  -5   2   -0.05    1.22
  -9  -5  -2   -1.59    1.46
  -9  -5   3    8.99    2.25
  -9  -5  -3   12.60    2.69
  -9  -5   4    2.20    1.39
  -9  -5  -4    0.81    1.18
  -9  -5   5    0.03    1.22
  -9  -5  -5    1.20    1.22
  -9  -5   6   26.33    3.83
  -9  -5  -6   19.59    3.38
  -9  -5   7   20.06    3.42
  -9  -5  -7   22.66    3.55
  -9  -5   8    5.68    1.82
  -9  -5  -8    3.55    1.80
  -9  -5  -9    5.78    2.02
  -9  -5   9    8.98    2.25
  -9  -5 -10   49.10    5.31
  -9  -5  10   47.16    5.25
  -9  -5 -11    3.32    1.75
  -9  -5  11    5.08    1.90
  -9  -5 -12    3.52    1.76
  -9  -5  12    3.57    2.01
  -9  -5 -13   18.32    3.29
  -9  -5  13   22.90    3.88
  -9  -5 -14   36.04    4.60
  -9  -5  14   28.35    4.15
  -9  -5 -15    4.20    1.18
  -9  -5  15    3.99    1.70
  -9  -5 -16   -1.07    0.97
  -9  -5  16    1.40    1.45
  -9  -5  17    5.03    2.17
  -9  -5 -17    7.12    2.32
  -9  -5 -18   57.46    6.27
  -9  -5  18   56.14    6.13
  -9  -5 -19    0.94    1.05
  -9  -5  19    6.01    2.61
  -9  -5 -20   26.80    4.32
  -9  -5  20   27.18    4.31
  -9  -5  21    2.22    1.94
  -9  -5  22    6.90    2.53
  -9  -5  23    0.48    1.19
  -9  -6   0    1.92    1.38
  -9  -6   1    5.97    2.20
  -9  -6  -1    5.43    1.56
  -9  -6   2   19.49    3.28
  -9  -6  -2   15.78    2.93
  -9  -6   3    9.03    1.97
  -9  -6  -3    7.07    2.17
  -9  -6   4   33.78    4.37
  -9  -6  -4   34.52    4.43
  -9  -6   5    5.22    2.06
  -9  -6  -5    4.16    1.79
  -9  -6   6    2.92    1.66
  -9  -6  -6    0.21    1.04
  -9  -6   7   10.24    2.65
  -9  -6  -7    6.34    1.84
  -9  -6   8    6.44    2.04
  -9  -6  -8    6.60    2.16
  -9  -6  -9    2.99    1.43
  -9  -6   9    2.06    1.11
  -9  -6 -10    8.22    2.20
  -9  -6  10    9.51    2.46
  -9  -6 -11    2.94    1.29
  -9  -6  11   -0.35    1.03
  -9  -6 -12   29.60    4.14
  -9  -6  12   26.55    4.22
  -9  -6 -13   18.82    3.53
  -9  -6  13   22.25    3.73
  -9  -6 -14    0.88    1.39
  -9  -6  14    3.17    2.06
  -9  -6 -15    7.75    2.50
  -9  -6  15    2.48    1.50
  -9  -6 -16   13.43    3.19
  -9  -6  16   19.86    3.65
  -9  -6  17   30.99    4.52
  -9  -6 -17   30.85    4.62
  -9  -6  18   16.01    3.47
  -9  -6 -18   22.02    4.02
  -9  -6 -19    1.19    1.34
  -9  -6  19    3.08    1.95
  -9  -6 -20    3.87    1.65
  -9  -6  20    4.45    1.82
  -9  -6 -21    1.23    1.24
  -9  -6  21    6.38    2.77
  -9  -6 -22    9.00    2.92
  -9  -6  22    9.15    2.76
  -9  -7   0    0.66    1.02
  -9  -7   1   -0.24    1.10
  -9  -7  -1    0.04    0.99
  -9  -7   2    1.79    1.38
  -9  -7  -2    2.18    1.53
  -9  -7   3   12.02    2.80
  -9  -7  -3    8.42    2.37
  -9  -7   4   18.00    3.16
  -9  -7  -4   14.26    2.91
  -9  -7   5    6.98    2.34
  -9  -7  -5    5.83    2.01
  -9  -7   6    5.52    2.31
  -9  -7  -6    0.07    1.19
  -9  -7   7   17.58    3.30
  -9  -7  -7    9.92    2.56
  -9  -7  -8   17.84    3.38
  -9  -7   8   12.42    2.65
  -9  -7  -9   48.92    5.51
  -9  -7   9   47.73    5.32
  -9  -7 -10   22.76    3.83
  -9  -7  10   20.57    3.55
  -9  -7 -11   17.18    3.57
  -9  -7  11   20.50    3.73
  -9  -7 -12   16.46    3.32
  -9  -7  12   14.06    3.13
  -9  -7 -13   15.95    5.14
  -9  -7  13   12.42    2.95
  -9  -7 -14    4.30    1.81
  -9  -7  14    4.84    2.24
  -9  -7 -15    1.92    1.44
  -9  -7  15    2.80    1.65
  -9  -7 -16    0.02    1.32
  -9  -7  16    0.80    0.98
  -9  -7  17    0.69    1.21
  -9  -7 -17    1.51    1.47
  -9  -7  18    1.69    1.52
  -9  -7 -18    2.83    1.74
  -9  -7 -19   44.21    5.77
  -9  -7  19   45.44    5.71
  -9  -7 -20   -2.25    1.52
  -9  -7  20    1.11    1.59
  -9  -7 -21    3.57    1.92
  -9  -7  21    4.68    2.21
  -9  -7 -22    0.83    1.95
  -9  -7 -23  116.91   10.03
  -9  -7 -24    2.53    2.50
  -9  -8   0   -1.81    1.53
  -9  -8   1    3.00    1.54
  -9  -8  -1    1.72    1.22
  -9  -8   2    3.86    1.93
  -9  -8  -2    2.13    1.43
  -9  -8   3   18.87    3.51
  -9  -8  -3   23.71    3.80
  -9  -8   4   11.58    2.71
  -9  -8  -4    7.04    2.21
  -9  -8   5   22.61    3.77
  -9  -8  -5   15.57    3.06
  -9  -8   6    3.64    1.71
  -9  -8  -6    5.13    2.09
  -9  -8   7   14.14    2.91
  -9  -8  -7   13.84    3.00
  -9  -8  -8   -0.29    0.99
  -9  -8   8    1.58    1.42
  -9  -8   9   -2.10    1.56
  -9  -8  -9    1.39    1.32
  -9  -8  10    2.79    1.65
  -9  -8 -10    1.22    0.98
  -9  -8 -11   22.07    3.76
  -9  -8  11   22.54    3.79
  -9  -8 -12   -1.75    2.09
  -9  -8  12    1.05    1.11
  -9  -8 -13    5.91    2.12
  -9  -8  13    7.07    2.13
  -9  -8 -14    1.24    1.68
  -9  -8  14    1.86    1.58
  -9  -8 -15    0.44    1.12
  -9  -8  15    1.62    1.53
  -9  -8 -16    1.99    1.40
  -9  -8  16    2.37    1.48
  -9  -8  17    7.23    2.53
  -9  -8 -17    6.52    2.03
  -9  -8  18   17.53    3.80
  -9  -8 -18   12.88    3.22
  -9  -8 -19   15.96    3.46
  -9  -8  19   19.51    3.85
  -9  -8 -20    4.49    2.39
  -9  -8 -21    2.85    2.03
  -9  -8 -22   -0.71    1.58
  -9  -8 -23   11.12    3.27
  -9  -9   0   -1.21    1.43
  -9  -9   1    8.81    2.45
  -9  -9  -1    8.52    2.68
  -9  -9   2   39.74    4.99
  -9  -9  -2   32.40    4.56
  -9  -9   3   21.75    3.81
  -9  -9  -3   27.88    4.20
  -9  -9   4    4.64    2.19
  -9  -9  -4    2.19    0.99
  -9  -9   5    0.46    1.04
  -9  -9  -5    5.13    2.17
  -9  -9   6  107.94    8.19
  -9  -9  -6   91.52    7.69
  -9  -9   7    7.00    2.29
  -9  -9  -7    6.86    2.50
  -9  -9  -8    9.30    2.46
  -9  -9   8   18.00    3.29
  -9  -9   9    2.98    1.65
  -9  -9  -9   -0.01    1.41
  -9  -9  10   13.66    3.24
  -9  -9 -10   10.03    2.74
  -9  -9 -11   38.84    5.13
  -9  -9  11   46.40    5.60
  -9  -9 -12    1.47    1.33
  -9  -9  12   -0.20    0.98
  -9  -9 -13    6.23    2.26
  -9  -9  13    9.88    2.49
  -9  -9 -14    1.13    1.37
  -9  -9  14    0.89    1.52
  -9  -9 -15    4.15    1.76
  -9  -9  15    4.74    2.10
  -9  -9 -16   11.81    3.16
  -9  -9  16    9.23    2.39
  -9  -9  17    1.88    1.56
  -9  -9 -17    0.16    1.27
  -9  -9  18   33.84    5.07
  -9  -9 -18   35.83    5.48
  -9  -9 -19    3.92    2.19
  -9  -9 -20  120.58    9.92
  -9  -9 -21    4.72    2.68
  -9 -10   0   -0.81    0.96
  -9 -10   1    1.95    1.62
  -9 -10  -1   -0.53    1.51
  -9 -10   2    0.05    1.08
  -9 -10  -2    2.17    1.43
  -9 -10   3    1.88    1.30
  -9 -10  -3    0.03    1.31
  -9 -10   4   10.62    2.73
  -9 -10  -4    9.45    2.55
  -9 -10   5   15.07    3.27
  -9 -10  -5   19.82    3.65
  -9 -10   6   34.24    4.77
  -9 -10  -6   32.88    4.75
  -9 -10   7   17.37    3.54
  -9 -10  -7   11.81    3.00
  -9 -10  -8   29.46    4.30
  -9 -10   8   19.12    3.53
  -9 -10   9   -1.81    1.68
  -9 -10  -9    2.95    2.01
  -9 -10  10    2.25    1.09
  -9 -10 -10   -1.57    1.67
  -9 -10  11    9.16    2.59
  -9 -10 -11   10.91    2.76
  -9 -10 -12   -2.67    1.75
  -9 -10  12   -0.88    1.44
  -9 -10 -13    0.38    1.23
  -9 -10  13   -1.07    1.70
  -9 -10 -14   -0.21    1.04
  -9 -10  14   -2.93    2.05
  -9 -10 -15    3.43    2.17
  -9 -10  15    1.47    1.30
  -9 -10 -16    3.09    2.07
  -9 -10  16    1.16    1.24
  -9 -10 -17   -0.28    1.49
  -9 -10  17   -1.05    1.54
  -9 -10 -18    9.02    3.08
  -9 -10 -19   10.92    3.20
  -9 -11   0   -1.76    1.66
  -9 -11   1   32.53    4.63
  -9 -11  -1   35.74    4.83
  -9 -11   2   21.67    3.90
  -9 -11  -2   23.58    3.99
  -9 -11   3   12.34    3.14
  -9 -11  -3    8.69    2.62
  -9 -11   4    7.59    2.93
  -9 -11  -4    5.63    2.24
  -9 -11   5  174.01   11.18
  -9 -11  -5  157.23   10.40
  -9 -11   6  142.83   10.07
  -9 -11  -6  129.27    9.58
  -9 -11  -7  209.35   12.31
  -9 -11   7  220.57   12.48
  -9 -11  -8  139.78   10.07
  -9 -11   8  147.12    9.98
  -9 -11  -9   44.77    5.62
  -9 -11   9   42.16    5.29
  -9 -11  10   13.31    3.04
  -9 -11 -10   12.49    3.09
  -9 -11  11   16.35    3.41
  -9 -11 -11   16.86    3.48
  -9 -11  12   14.17    3.22
  -9 -11 -12   20.64    3.78
  -9 -11 -13    6.02    2.40
  -9 -11  13    5.32    1.80
  -9 -11 -14   -0.03    1.29
  -9 -11  14    0.34    1.47
  -9 -11 -15   14.38    3.49
  -9 -11  15   13.74    3.19
  -9 -11 -16    5.44    2.39
  -9 -11 -17    2.09    2.32
  -9 -12   0    1.17    1.54
  -9 -12   1    0.89    1.16
  -9 -12  -1    0.97    1.25
  -9 -12   2    4.79    2.20
  -9 -12  -2    2.40    1.31
  -9 -12   3    4.76    2.18
  -9 -12  -3    3.26    1.85
  -9 -12   4    2.52    1.74
  -9 -12  -4   -1.05    1.46
  -9 -12   5   37.82    5.27
  -9 -12  -5   34.82    4.88
  -9 -12   6    1.10    1.96
  -9 -12  -6    6.15    2.71
  -9 -12   7  175.57   11.13
  -9 -12  -7  171.23   11.15
  -9 -12  -8    9.66    3.20
  -9 -12   8    6.28    2.53
  -9 -12  -9   48.75    5.89
  -9 -12   9   46.42    5.64
  -9 -12  10   -1.44    1.59
  -9 -12 -10   -2.66    1.90
  -9 -12  11   16.69    3.45
  -9 -12 -11   17.43    3.65
  -9 -12  12   -1.55    1.96
  -9 -12 -12   -3.91    2.06
  -9 -12 -13    6.61    2.72
  -9 -12  13    2.95    2.19
  -9 -12 -14   -1.39    1.24
  -9 -12 -15   -0.14    1.13
  -9 -13   0   -1.87    1.95
  -9 -13   1    5.87    2.05
  -9 -13  -1    0.47    1.29
  -9 -13  -2   55.68    6.25
  -9 -13   2   43.62    5.42
  -9 -13   3   18.86    3.74
  -9 -13  -3   13.14    2.97
  -9 -13   4   17.01    3.73
  -9 -13  -4   16.85    3.60
  -9 -13   5  124.15    9.59
  -9 -13  -5  105.52    8.68
  -9 -13   6  162.00   10.97
  -9 -13  -6  150.21   10.56
  -9 -13   7  384.80   17.22
  -9 -13  -7  374.62   17.30
  -9 -13  -8  139.79   10.42
  -9 -13   8  144.20   10.34
  -9 -13  -9  136.41   10.22
  -9 -13   9  151.13   10.48
  -9 -13  10    0.70    1.44
  -9 -13 -10    3.28    2.81
  -9 -13 -11    2.47    2.49
  -9 -13 -12   36.84    5.12
  -9 -13 -13    0.67    1.60
  -9 -14   0   -1.04    1.68
  -9 -14   1    1.58    1.35
  -9 -14  -1   -1.30    1.61
  -9 -14   2    7.24    2.24
  -9 -14  -2    1.83    1.56
  -9 -14   3   -0.15    1.15
  -9 -14  -3   -0.97    2.34
  -9 -14   4    1.65    1.31
  -9 -14  -4    0.01    1.85
  -9 -14   5   30.35    5.01
  -9 -14  -5   22.55    4.07
  -9 -14   6  106.97    9.02
  -9 -14  -6   94.93    8.47
  -9 -14   7   24.08    4.38
  -9 -14  -7   19.68    4.40
  -9 -14  -8  101.68    8.78
  -9 -14  -9   35.80    5.53
 -10  -5   3    0.67    1.02
 -10  -5   4    1.03    1.07
 -10  -5   5    1.07    1.09
 -10  -5   6    0.56    0.94
 -10  -5   7   -0.52    1.83
 -10  -5   8    7.46    2.26
 -10  -5   9   -1.74    1.27
 -10  -5  10    0.27    1.20
 -10  -5  11    1.40    1.79
 -10  -5  12   14.42    3.27
 -10  -5  13   32.83    4.70
 -10  -5  14   10.53    3.17
 -10  -5  15   53.36    6.10
 -10  -5  16    4.14    2.31
 -10  -5  17   10.98    3.02
 -10  -5  18    4.06    2.54
 -10  -6   0  185.99   11.04
 -10  -6   1  140.08    9.43
 -10  -6  -1  131.17    9.20
 -10  -6  -2   46.82    5.60
 -10  -6   2   38.90    4.86
 -10  -6   3   10.91    2.34
 -10  -6  -3   13.06    3.05
 -10  -6   4    5.01    2.04
 -10  -6  -4    8.57    2.45
 -10  -6   5   49.74    5.58
 -10  -6   6    3.67    1.64
 -10  -6   7   -2.13    1.98
 -10  -6   8    3.32    1.36
 -10  -6   9   35.26    4.99
 -10  -6  10    2.24    1.68
 -10  -6  11   34.73    4.84
 -10  -6  12   58.66    6.40
 -10  -6  13  135.96    9.71
 -10  -6  14  132.40    9.66
 -10  -6  15   32.40    4.91
 -10  -6  16   30.88    4.83
 -10  -7   0   12.92    3.25
 -10  -7   1    8.21    2.60
 -10  -7  -1    4.20    2.10
 -10  -7   2    0.18    1.57
 -10  -7  -2    1.95    1.55
 -10  -7   3   -0.74    1.08
 -10  -7  -3    0.23    1.01
 -10  -7   4    0.76    1.02
 -10  -7  -4    1.09    1.37
 -10  -7   5   -1.35    1.57
 -10  -7  -5    1.65    1.54
 -10  -7   6    3.26    1.60
 -10  -7  -6    5.01    1.75
 -10  -7   7    5.06    1.75
 -10  -7  -7    2.12    1.57
 -10  -7  -8    0.67    1.30
 -10  -7   8    0.03    1.41
 -10  -7   9   -1.09    1.22
 -10  -7  10   -0.33    1.28
 -10  -7  11    0.96    1.20
 -10  -7  12    6.15    2.30
 -10  -7  13    4.32    2.03
 -10  -7  14   22.41    4.17
 -10  -7  15    2.68    1.83
 -10  -8   0   43.10    5.67
 -10  -8   1  214.04   12.29
 -10  -8  -1  207.50   11.96
 -10  -8   2    7.70    2.63
 -10  -8  -2    8.93    3.16
 -10  -8   3   12.00    3.04
 -10  -8  -3    9.66    2.73
 -10  -8   4   38.96    5.16
 -10  -8  -4   42.06    5.19
 -10  -8   5   11.52    2.92
 -10  -8  -5    3.96    1.65
 -10  -8   6   14.18    3.09
 -10  -8  -6   14.82    3.22
 -10  -8   7    1.52    1.52
 -10  -8  -7    0.27    1.10
 -10  -8   8   21.30    3.78
 -10  -8  -8   24.14    3.99
 -10  -8  -9   -0.80    1.77
 -10  -8   9    0.63    1.07
 -10  -8 -10    7.70    2.19
 -10  -8  10   13.01    3.26
 -10  -8  11   44.66    5.62
 -10  -8 -11   37.86    5.20
 -10  -8 -12   28.98    4.66
 -10  -8  12   32.48    5.13
 -10  -8  13  104.14    8.67
 -10  -9   0  103.36    8.50
 -10  -9   1   89.70    8.00
 -10  -9  -1   96.60    8.27
 -10  -9   2   12.38    3.19
 -10  -9  -2    8.99    3.01
 -10  -9   3   13.79    3.13
 -10  -9  -3   16.32    3.50
 -10  -9   4    1.91    1.61
 -10  -9  -4    3.65    2.04
 -10  -9   5    3.15    1.72
 -10  -9  -5    5.50    2.20
 -10  -9   6   -1.01    1.27
 -10  -9  -6   -2.60    2.20
 -10  -9   7   -0.53    1.30
 -10  -9  -7    2.96    1.73
 -10  -9   8    5.27    2.14
 -10  -9  -8    4.25    2.04
 -10  -9   9    3.83    1.80
 -10  -9  -9    0.80    1.38
 -10  -9 -10   -1.07    1.41
 -10  -9  10   -0.80    1.48
 -10  -9  11    0.55    1.42
 -10  -9 -11    0.15    1.25
 -10  -9 -12    6.78    2.32
 -10  -9 -13   52.62    6.40
 -10  -9 -14   45.81    6.09
 -10 -10   0  126.82    9.55
 -10 -10   1   19.42    4.18
 -10 -10  -1   16.32    3.72
 -10 -10   2   64.37    7.08
 -10 -10  -2   61.19    6.67
 -10 -10   3   57.50    6.48
 -10 -10  -3   68.02    7.03
 -10 -10   4    0.60    1.17
 -10 -10  -4   -0.90    1.50
 -10 -10   5   17.82    3.71
 -10 -10  -5   13.80    3.14
 -10 -10   6   -1.24    1.11
 -10 -10  -6    0.38    1.41
 -10 -10   7    8.42    2.62
 -10 -10  -7    4.67    1.83
 -10 -10   8    3.77    1.82
 -10 -10  -8    4.51    1.55
 -10 -10  -9   14.88    3.38
 -10 -10 -10   12.43    3.34
 -10 -10 -11   16.64    3.88
 -10 -11   0   62.35    6.90
 -10 -11   1   55.11    6.48
 -10 -11  -1   59.52    6.66
 -10 -11   2    3.08    1.98
 -10 -11  -2    6.60    2.31
 -10 -11   3   -0.25    1.52
 -10 -11  -3    0.07    1.60
 -10 -11   4   -1.30    1.63
 -10 -11  -4    0.02    1.14
 -10 -11  -5   14.56    3.41
 -10 -11  -6   -1.03    1.62
 -10 -11  -7    0.97    1.32
   0   0   0    0.00    0.00
;
_shelx_hkl_checksum              10395
_shelx_res_file
;
TITL 44bpyPbca in Pbca
CELL  0.71073   8.0519  23.4398  32.8901   90.000   90.000   90.000
ZERR    15.00   0.0001   0.0003   0.0005    0.000    0.000    0.000
LATT   1
SYMM  1/2 - X, - Y, 1/2 + Z
SYMM  - X, 1/2 + Y, 1/2 - Z
SYMM  1/2 + X, 1/2 - Y, - Z
SFAC  C    N    S    I    PB   O    H
UNIT  112  16   16   48   16   16   176
MERG   2
FMAP   2
PLAN   20
ACTA
HTAB
HTAB N2 S2
HTAB N2 O4
HTAB C9 I4
EQIV $1 x-1/2, y, -z+1/2
HTAB C9 I4_$1
EQIV $2 -x+1/2, y-1/2, z
HTAB C8 I3_$2
EQIV $3 -x+1, y-1/2, -z+1/2
HTAB C7 I3_$3
HTAB C7 I3_$2
HTAB C6 I5_$2
HTAB C3 I6
HTAB C5 I5_$2
HTAB C4 I6
HTAB C10 I4
EQIV $4 -x, y-1/2, -z+1/2
HTAB C15 I7_$4
EQIV $5 x+1/2, y, -z+1/2
HTAB C15 O4_$5
EQIV $6 x, -y+1/2, z-1/2
HTAB C13 I8_$6
HTAB C13 I6_$1
EQIV $7 x-1/2, -y+1/2, -z+1
HTAB C11 I5_$7
HTAB N1 S1
HTAB N1 O3
HTAB C16 I7_$7
BOND
L.S.   4
WGHT    0.017600
FVAR       0.04197
N1    2    0.081016    0.100981    0.176297    11.00000    0.02545    0.02243 =
         0.01648    0.00250    0.00026    0.00234
C1    1    0.075938    0.102766    0.260119    11.00000    0.01479    0.01538 =
         0.02027   -0.00021   -0.00144    0.00559
N2    2    0.050329    0.108454    0.388698    11.00000    0.02886    0.02831 =
         0.01859   -0.00359   -0.00077   -0.00056
AFIX  43
H2    7    0.041255    0.110557    0.414708    11.00000   -1.20000
AFIX   0
C9    1    0.145521    0.147164    0.237718    11.00000    0.02186    0.02270 =
         0.02025    0.00253    0.00282   -0.00134
AFIX  43
H9    7    0.191707    0.178226    0.251196    11.00000   -1.20000
AFIX   0
C8    1    0.011865    0.057347    0.196622    11.00000    0.03032    0.02136 =
         0.02339   -0.00312   -0.00295   -0.00290
AFIX  43
H8    7   -0.033194    0.026815    0.182326    11.00000   -1.20000
AFIX   0
C7    1    0.007215    0.057464    0.237978    11.00000    0.02837    0.01887 =
         0.02204    0.00511    0.00011    0.00372
AFIX  43
H7    7   -0.042065    0.027175    0.251690    11.00000   -1.20000
AFIX   0
C6    1   -0.007751    0.060861    0.327769    11.00000    0.02567    0.01819 =
         0.02361   -0.00081    0.00553   -0.00040
AFIX  43
H6    7   -0.055221    0.030019    0.314301    11.00000   -1.20000
AFIX   0
C3    1    0.144029    0.148066    0.327284    11.00000    0.02550    0.02168 =
         0.02250    0.00010   -0.00122   -0.00332
AFIX  43
H3    7    0.201625    0.176709    0.313718    11.00000   -1.20000
AFIX   0
C2    1    0.071771    0.103716    0.305520    11.00000    0.01473    0.01534 =
         0.02040   -0.00004   -0.00041    0.00429
C5    1   -0.016078    0.064056    0.369172    11.00000    0.02372    0.02621 =
         0.01910    0.00535    0.00193    0.00343
AFIX  43
H5    7   -0.068177    0.035210    0.383809    11.00000   -1.20000
AFIX   0
C4    1    0.130122    0.149453    0.368820    11.00000    0.02965    0.02232 =
         0.01742   -0.00099   -0.00350   -0.00144
AFIX  43
H4    7    0.177174    0.179492    0.383260    11.00000   -1.20000
AFIX   0
C10   1    0.146781    0.145670    0.196426    11.00000    0.02694    0.01963 =
         0.02414    0.00225    0.00064    0.00342
AFIX  43
H10   7    0.193414    0.175737    0.181932    11.00000   -1.20000
AFIX   0
S1    3    0.034509    0.122879    0.066811    11.00000    0.02840    0.03693 =
         0.01883   -0.00170    0.00232    0.00393
S2    3    0.131517    0.121533    0.498384    11.00000    0.02552    0.04483 =
         0.02021   -0.00371    0.00243   -0.00443
O4    6    0.000261    0.106127    0.466906    11.00000    0.03247    0.04436 =
         0.01370   -0.00140   -0.00220   -0.00686
O3    6    0.144895    0.100867    0.100858    11.00000    0.03248    0.04247 =
         0.01757    0.00182   -0.00051    0.00795
C15   1    0.085612    0.080400    0.023939    11.00000    0.03670    0.03854 =
         0.02631   -0.00491    0.00079   -0.00758
AFIX  33
H15A  7    0.040731    0.042773    0.027423    11.00000   -1.50000
H15B  7    0.204170    0.078096    0.021324    11.00000   -1.50000
H15C  7    0.039582    0.097351   -0.000124    11.00000   -1.50000
AFIX   0
C13   1    0.132386    0.187247    0.050872    11.00000    0.07941    0.03067 =
         0.02486   -0.00131    0.00400   -0.00004
AFIX  33
H13A  7    0.069561    0.204042    0.029143    11.00000   -1.50000
H13B  7    0.242825    0.179012    0.041571    11.00000   -1.50000
H13C  7    0.137524    0.213381    0.073310    11.00000   -1.50000
AFIX   0
C11   1    0.169800    0.056802    0.524716    11.00000    0.03897    0.05200 =
         0.03929    0.00738   -0.00317    0.01741
AFIX  33
H11A  7    0.252171    0.063103    0.545335    11.00000   -1.50000
H11B  7    0.209111    0.028529    0.505919    11.00000   -1.50000
H11C  7    0.068836    0.043747    0.537143    11.00000   -1.50000
AFIX   0
H17   7    0.078429    0.100643    0.149992    11.00000    0.01190
MOLE    1
PB1   5    0.601392    0.350195    0.287515    11.00000    0.01597    0.02198 =
         0.01991    0.00030    0.00010    0.00089
PB2   5    0.105158    0.363022    0.364856    11.00000    0.02066    0.02386 =
         0.01861   -0.00057    0.00050   -0.00002
I3    4    0.777989    0.430999    0.217514    11.00000    0.01871    0.02002 =
         0.02180    0.00047    0.00147    0.00169
I4    4    0.434116    0.275648    0.211452    11.00000    0.01883    0.01949 =
         0.02492   -0.00022   -0.00082    0.00164
I5    4    0.758964    0.427134    0.354228    11.00000    0.02315    0.02595 =
         0.02594   -0.00571   -0.00485    0.00502
I6    4    0.432049    0.274964    0.353739    11.00000    0.02203    0.02536 =
         0.02579    0.00422    0.00227    0.00013
I7    4    0.208372    0.468019    0.413607    11.00000    0.03348    0.03058 =
         0.02877   -0.00634   -0.00179   -0.00560
I8    4    0.002911    0.288848    0.435653    11.00000    0.04679    0.03577 =
         0.02652    0.00371    0.00793   -0.00666
MOLE    2
C16   1    0.022512    0.158016    0.536840    11.00000    0.04738    0.04615 =
         0.03289   -0.01968    0.01046   -0.00313
AFIX  33
H16A  7   -0.007939    0.195265    0.527266    11.00000   -1.50000
H16B  7    0.091919    0.161640    0.560432    11.00000   -1.50000
H16C  7   -0.075864    0.137031    0.543786    11.00000   -1.50000
AFIX   0
HKLF 4
REM  44bpyPbca in Pbca
REM R1 =  0.0332 for    5859 Fo > 4sig(Fo)  and  0.0454 for all    7106 data
REM    257 parameters refined using      0 restraints
END
WGHT      0.0176      0.0000
REM Instructions for potential hydrogen bonds
HTAB N2 S2
HTAB N2 O4
HTAB C9 I4
HTAB C9 I4_$1
HTAB C8 I3_$2
HTAB C7 I3_$3
HTAB C7 I3_$2
HTAB C6 I5_$2
HTAB C3 I6
HTAB C5 I5_$2
HTAB C4 I6
HTAB C10 I4
HTAB C15 I7_$4
HTAB C15 O4_$5
HTAB C13 I8_$6
HTAB C13 I6_$1
HTAB C11 I5_$7
HTAB N1 S1
HTAB N1 O3
HTAB C16 I7_$7
REM Highest difference peak  1.091,  deepest hole -1.330,  1-sigma level  0.232
Q1    1   0.6020  0.3540  0.3350  11.00000  0.05    1.09
Q2    1   0.7596  0.4313  0.1715  11.00000  0.05    1.05
Q3    1   0.2949  0.3104  0.3194  11.00000  0.05    0.93
Q4    1   0.1109  0.0909  0.1230  11.00000  0.05    0.92
Q5    1   0.0178  0.3786  0.3401  11.00000  0.05    0.91
Q6    1   0.7033  0.3786  0.2578  11.00000  0.05    0.90
Q7    1   0.1151  0.4753  0.3904  11.00000  0.05    0.88
Q8    1   0.2346  0.2189  0.3927  11.00000  0.05    0.88
Q9    1   0.7179  0.3195  0.2509  11.00000  0.05    0.86
Q10   1   0.0585  0.3230  0.3992  11.00000  0.05    0.85
Q11   1   0.5909  0.4481  0.2139  11.00000  0.05    0.85
Q12   1   0.2038  0.3273  0.3302  11.00000  0.05    0.84
Q13   1   0.7655  0.3824  0.3324  11.00000  0.05    0.83
Q14   1   0.4314  0.2777  0.2552  11.00000  0.05    0.83
Q15   1   0.0931  0.3672  0.4043  11.00000  0.05    0.82
Q16   1   0.9049  0.4658  0.2503  11.00000  0.05    0.82
Q17   1   0.4354  0.2690  0.3979  11.00000  0.05    0.82
Q18   1   0.8637  0.4522  0.1879  11.00000  0.05    0.81
Q19   1   0.5111  0.3317  0.2544  11.00000  0.05    0.81
Q20   1   0.7524  0.3146  0.2433  11.00000  0.05    0.81
;
_shelx_res_checksum              70630
_shelxl_version_number           201.4
loop_
_space_group_symop_operation_xyz
'x, y, z'
'-x+1/2, -y, z+1/2'
'-x, y+1/2, -z+1/2'
'x+1/2, -y+1/2, -z'
'-x, -y, -z'
'x-1/2, y, -z-1/2'
'x, -y-1/2, z-1/2'
'-x-1/2, y-1/2, z'
loop_
_atom_site_type_symbol
_atom_site_label
_atom_site_fract_x
_atom_site_fract_y
_atom_site_fract_z
_atom_site_U_iso_or_equiv
_atom_site_adp_type
_atom_site_calc_flag
_atom_site_occupancy
N N1 0.0810(7) 0.1010(2) 0.1763(2) 0.0215(13) Uani d 1
C C1 0.0759(7) 0.1028(2) 0.2601(2) 0.0168(14) Uani d 1
N N2 0.0503(6) 0.1085(2) 0.38870(19) 0.0253(14) Uani d 1
H H2 0.0413 0.1106 0.4147 0.030 Uiso calc 1
C C9 0.1455(7) 0.1472(3) 0.2377(2) 0.0216(15) Uani d 1
H H9 0.1917 0.1782 0.2512 0.026 Uiso calc 1
C C8 0.0119(8) 0.0573(3) 0.1966(2) 0.0250(16) Uani d 1
H H8 -0.0332 0.0268 0.1823 0.030 Uiso calc 1
C C7 0.0072(8) 0.0575(3) 0.2380(2) 0.0231(16) Uani d 1
H H7 -0.0421 0.0272 0.2517 0.028 Uiso calc 1
C C6 -0.0078(7) 0.0609(3) 0.3278(2) 0.0225(16) Uani d 1
H H6 -0.0552 0.0300 0.3143 0.027 Uiso calc 1
C C3 0.1440(8) 0.1481(3) 0.3273(2) 0.0232(16) Uani d 1
H H3 0.2016 0.1767 0.3137 0.028 Uiso calc 1
C C2 0.0718(7) 0.1037(2) 0.3055(2) 0.0168(14) Uani d 1
C C5 -0.0161(8) 0.0641(3) 0.3692(2) 0.0230(15) Uani d 1
H H5 -0.0682 0.0352 0.3838 0.028 Uiso calc 1
C C4 0.1301(8) 0.1495(3) 0.3688(2) 0.0231(16) Uani d 1
H H4 0.1772 0.1795 0.3833 0.028 Uiso calc 1
C C10 0.1468(8) 0.1457(3) 0.1964(2) 0.0236(16) Uani d 1
H H10 0.1934 0.1757 0.1819 0.028 Uiso calc 1
S S1 0.0345(2) 0.12288(8) 0.06681(6) 0.0281(4) Uani d 1
S S2 0.1315(2) 0.12153(8) 0.49838(6) 0.0302(4) Uani d 1
O O4 0.0003(5) 0.1061(2) 0.46691(15) 0.0302(12) Uani d 1
O O3 0.1449(5) 0.1009(2) 0.10086(16) 0.0308(12) Uani d 1
C C15 0.0856(8) 0.0804(3) 0.0239(2) 0.0339(19) Uani d 1
H H15A 0.0407 0.0428 0.0274 0.051 Uiso calc 1
H H15B 0.2042 0.0781 0.0213 0.051 Uiso calc 1
H H15C 0.0396 0.0974 -0.0001 0.051 Uiso calc 1
C C13 0.1324(10) 0.1872(3) 0.0509(3) 0.045(2) Uani d 1
H H13A 0.0696 0.2040 0.0291 0.067 Uiso calc 1
H H13B 0.2428 0.1790 0.0416 0.067 Uiso calc 1
H H13C 0.1375 0.2134 0.0733 0.067 Uiso calc 1
C C11 0.1698(9) 0.0568(3) 0.5247(3) 0.043(2) Uani d 1
H H11A 0.2522 0.0631 0.5453 0.065 Uiso calc 1
H H11B 0.2091 0.0285 0.5059 0.065 Uiso calc 1
H H11C 0.0688 0.0437 0.5371 0.065 Uiso calc 1
H H17 0.078(7) 0.101(3) 0.150(2) 0.012(17) Uiso d 1
Pb Pb1 0.60139(3) 0.35019(2) 0.28752(2) 0.01929(7) Uani d 1
Pb Pb2 0.10516(3) 0.36302(2) 0.36486(2) 0.02104(7) Uani d 1
I I3 0.77799(5) 0.43100(2) 0.21751(2) 0.02017(10) Uani d 1
I I4 0.43412(5) 0.27565(2) 0.21145(2) 0.02108(10) Uani d 1
I I5 0.75896(5) 0.42713(2) 0.35423(2) 0.02501(11) Uani d 1
I I6 0.43205(5) 0.27496(2) 0.35374(2) 0.02439(11) Uani d 1
I I7 0.20837(6) 0.46802(2) 0.41361(2) 0.03094(12) Uani d 1
I I8 0.00291(6) 0.28885(2) 0.43565(2) 0.03636(13) Uani d 1
C C16 0.0225(9) 0.1580(3) 0.5368(3) 0.042(2) Uani d 1
H H16A -0.0079 0.1953 0.5273 0.063 Uiso calc 1
H H16B 0.0919 0.1616 0.5604 0.063 Uiso calc 1
H H16C -0.0759 0.1370 0.5438 0.063 Uiso calc 1
loop_
_atom_site_aniso_label
_atom_site_aniso_U_11
_atom_site_aniso_U_22
_atom_site_aniso_U_33
_atom_site_aniso_U_12
_atom_site_aniso_U_13
_atom_site_aniso_U_23
N1 0.025(3) 0.022(3) 0.016(4) 0.002(2) 0.000(3) 0.003(3)
C1 0.015(3) 0.015(3) 0.020(4) 0.006(3) -0.001(3) 0.000(3)
N2 0.029(3) 0.028(3) 0.019(4) -0.001(3) -0.001(3) -0.004(3)
C9 0.022(3) 0.023(3) 0.020(4) -0.001(3) 0.003(3) 0.003(3)
C8 0.030(4) 0.021(3) 0.023(5) -0.003(3) -0.003(3) -0.003(3)
C7 0.028(3) 0.019(3) 0.022(4) 0.004(3) 0.000(3) 0.005(3)
C6 0.026(3) 0.018(3) 0.024(4) 0.000(3) 0.006(3) -0.001(3)
C3 0.025(3) 0.022(3) 0.022(5) -0.003(3) -0.001(3) 0.000(3)
C2 0.015(3) 0.015(3) 0.020(4) 0.004(3) 0.000(3) 0.000(3)
C5 0.024(3) 0.026(3) 0.019(4) 0.003(3) 0.002(3) 0.005(3)
C4 0.030(4) 0.022(3) 0.017(4) -0.001(3) -0.003(3) -0.001(3)
C10 0.027(3) 0.020(3) 0.024(5) 0.003(3) 0.001(3) 0.002(3)
S1 0.0284(9) 0.0369(10) 0.0188(11) 0.0039(8) 0.0023(8) -0.0017(8)
S2 0.0255(8) 0.0448(11) 0.0202(11) -0.0044(8) 0.0024(8) -0.0037(9)
O4 0.032(2) 0.044(3) 0.014(3) -0.007(2) -0.002(2) -0.001(2)
O3 0.032(2) 0.042(3) 0.018(3) 0.008(2) -0.001(2) 0.002(2)
C15 0.037(4) 0.039(4) 0.026(5) -0.008(4) 0.001(4) -0.005(4)
C13 0.079(6) 0.031(4) 0.025(5) 0.000(4) 0.004(5) -0.001(4)
C11 0.039(4) 0.052(5) 0.039(6) 0.017(4) -0.003(4) 0.007(4)
Pb1 0.01597(12) 0.02198(13) 0.01991(16) 0.00089(10) 0.00010(11) 0.00030(11)
Pb2 0.02066(12) 0.02386(13) 0.01861(16) -0.00002(11) 0.00050(11) -0.00057(11)
I3 0.0187(2) 0.0200(2) 0.0218(3) 0.00169(17) 0.00147(18) 0.00047(18)
I4 0.0188(2) 0.0195(2) 0.0249(3) 0.00164(17) -0.00082(19) -0.00022(18)
I5 0.0231(2) 0.0259(2) 0.0259(3) 0.00502(19) -0.0048(2) -0.0057(2)
I6 0.0220(2) 0.0254(2) 0.0258(3) 0.00013(18) 0.0023(2) 0.0042(2)
I7 0.0335(2) 0.0306(2) 0.0288(3) -0.0056(2) -0.0018(2) -0.0063(2)
I8 0.0468(3) 0.0358(3) 0.0265(3) -0.0067(2) 0.0079(2) 0.0037(2)
C16 0.047(5) 0.046(5) 0.033(6) -0.003(4) 0.010(4) -0.020(4)
loop_
_atom_type_symbol
_atom_type_description
_atom_type_scat_dispersion_real
_atom_type_scat_dispersion_imag
_atom_type_scat_source
C C 0.0033 0.0016 'International Tables Vol C Tables 4.2.6.8 and 6.1.1.4'
N N 0.0061 0.0033 'International Tables Vol C Tables 4.2.6.8 and 6.1.1.4'
S S 0.1246 0.1234 'International Tables Vol C Tables 4.2.6.8 and 6.1.1.4'
I I -0.4742 1.8119 'International Tables Vol C Tables 4.2.6.8 and 6.1.1.4'
Pb Pb -3.3944 10.1111 'International Tables Vol C Tables 4.2.6.8 and 6.1.1.4'
O O 0.0106 0.0060 'International Tables Vol C Tables 4.2.6.8 and 6.1.1.4'
H H 0.0000 0.0000 'International Tables Vol C Tables 4.2.6.8 and 6.1.1.4'
loop_
_geom_angle_atom_site_label_1
_geom_angle_atom_site_label_2
_geom_angle_atom_site_label_3
_geom_angle_site_symmetry_1
_geom_angle_site_symmetry_3
_geom_angle
C8 N1 C10 . . 120.7(7)
C9 C1 C7 . . 116.8(7)
C9 C1 C2 . . 121.8(6)
C7 C1 C2 . . 121.5(6)
C4 N2 C5 . . 121.4(7)
C10 C9 C1 . . 120.8(6)
N1 C8 C7 . . 120.5(6)
C8 C7 C1 . . 120.7(6)
C5 C6 C2 . . 120.3(6)
C4 C3 C2 . . 119.8(6)
C3 C2 C6 . . 117.4(7)
C3 C2 C1 . . 121.1(6)
C6 C2 C1 . . 121.5(6)
N2 C5 C6 . . 120.2(6)
N2 C4 C3 . . 120.9(6)
N1 C10 C9 . . 120.5(6)
O3 S1 C15 . . 105.0(3)
O3 S1 C13 . . 104.2(3)
C15 S1 C13 . . 98.0(4)
O4 S2 C16 . . 104.9(3)
O4 S2 C11 . . 104.5(3)
C16 S2 C11 . . 98.7(4)
I5 Pb1 I6 . . 90.775(15)
I5 Pb1 I4 . 6_656 88.142(12)
I6 Pb1 I4 . 6_656 92.861(13)
I5 Pb1 I3 . 6_556 91.434(12)
I6 Pb1 I3 . 6_556 90.853(12)
I4 Pb1 I3 6_656 6_556 176.267(14)
I5 Pb1 I3 . . 89.063(14)
I6 Pb1 I3 . . 179.398(14)
I4 Pb1 I3 6_656 . 87.713(12)
I3 Pb1 I3 6_556 . 88.571(12)
I5 Pb1 I4 . . 175.893(15)
I6 Pb1 I4 . . 92.929(13)
I4 Pb1 I4 6_656 . 93.441(12)
I3 Pb1 I4 6_556 . 86.740(12)
I3 Pb1 I4 . . 87.216(13)
I8 Pb2 I7 . . 97.664(16)
I8 Pb2 I5 . 1_455 96.755(15)
I7 Pb2 I5 . 1_455 85.157(13)
I8 Pb2 I6 . . 86.783(14)
I7 Pb2 I6 . . 109.796(14)
I5 Pb2 I6 1_455 . 164.113(15)
Pb1 I3 Pb1 6_656 . 92.671(12)
Pb1 I4 Pb1 6_556 . 92.525(12)
Pb1 I5 Pb2 . 1_655 99.251(13)
Pb1 I6 Pb2 . . 94.077(13)
loop_
_geom_bond_atom_site_label_1
_geom_bond_atom_site_label_2
_geom_bond_site_symmetry_2
_geom_bond_distance
N1 C8 . 1.343(8)
N1 C10 . 1.348(8)
C1 C9 . 1.393(8)
C1 C7 . 1.401(9)
C1 C2 . 1.494(9)
N2 C4 . 1.328(8)
N2 C5 . 1.335(8)
C9 C10 . 1.359(10)
C8 C7 . 1.361(10)
C6 C5 . 1.365(9)
C6 C2 . 1.398(9)
C3 C4 . 1.371(9)
C3 C2 . 1.390(9)
S1 O3 . 1.520(5)
S1 C15 . 1.775(7)
S1 C13 . 1.781(7)
S2 O4 . 1.523(5)
S2 C16 . 1.761(7)
S2 C11 . 1.774(8)
Pb1 I5 . 3.1107(5)
Pb1 I6 . 3.1165(5)
Pb1 I4 6_656 3.1987(5)
Pb1 I3 6_556 3.2242(5)
Pb1 I3 . 3.3030(5)
Pb1 I4 . 3.3356(5)
Pb2 I8 . 3.0204(6)
Pb2 I7 . 3.0526(5)
Pb2 I5 1_455 3.1860(5)
Pb2 I6 . 3.3648(5)
I3 Pb1 6_656 3.2242(5)
I4 Pb1 6_556 3.1987(5)
I5 Pb2 1_655 3.1860(5)
loop_
_geom_hbond_atom_site_label_D
_geom_hbond_atom_site_label_H
_geom_hbond_atom_site_label_A
_geom_hbond_site_symmetry_A
_geom_hbond_distance_DH
_geom_hbond_distance_HA
_geom_hbond_distance_DA
_geom_hbond_angle_DHA
N2 H2 S2 . 0.86 2.86 3.679(7) 160.3
N2 H2 O4 . 0.86 1.75 2.604(8) 171.0
C9 H9 I4 . 0.93 3.28 3.901(6) 126.4
C9 H9 I4 6_556 0.93 3.32 3.842(6) 117.7
C8 H8 I3 8_655 0.93 3.20 3.833(7) 126.6
C7 H7 I3 3_645 0.93 3.26 3.731(6) 113.6
C7 H7 I3 8_655 0.93 3.16 3.810(7) 129.0
C6 H6 I5 8_655 0.93 3.20 3.831(6) 127.0
C3 H3 I6 . 0.93 3.24 3.871(6) 127.2
C5 H5 I5 8_655 0.93 3.12 3.790(7) 130.6
C4 H4 I6 . 0.93 3.19 3.849(6) 129.7
C10 H10 I4 . 0.93 3.19 3.857(7) 130.2
C15 H15A I7 3_545 0.96 3.29 4.094(7) 142.0
C15 H15B O4 6_656 0.96 2.50 3.406(8) 156.7
C13 H13A I8 7_565 0.96 3.13 3.970(9) 147.6
C13 H13C I6 6_556 0.96 3.25 4.083(8) 145.9
C11 H11A I5 4_456 0.96 3.31 4.063(9) 136.6
N1 H17 S1 . 0.87(7) 2.81(7) 3.657(7) 167(5)
N1 H17 O3 . 0.87(7) 1.70(7) 2.534(8) 160(6)
C16 H16C I7 4_456 0.96 3.32 4.217(8) 155.7

_cod_database_fobs_code 2107269
