#------------------------------------------------------------------------------
#$Date: 2015-12-04 03:39:04 +0200 (Fri, 04 Dec 2015) $
#$Revision: 170697 $
#$URL: svn://www.crystallography.net/cod/cif/2/10/72/2107273.cif $
#------------------------------------------------------------------------------
#
# This file is available in the Crystallography Open Database (COD),
# http://www.crystallography.net/. The original data for this entry
# were provided by IUCr Journals, http://journals.iucr.org/.
#
# The file may be used within the scientific community so long as
# proper attribution is given to the journal article from which the
# data were obtained.
#
data_2107273
loop_
_publ_author_name
'Weber, Oliver J.'
'Marshall, Kayleigh L.'
'Dyson, Lewis M.'
'Weller, Mark T.'
_publ_section_title
;
 Structural diversity in hybrid organic--inorganic lead iodide materials
;
_journal_issue                   6
_journal_name_full               'Acta Crystallographica Section B'
_journal_page_first              668
_journal_page_last               678
_journal_paper_doi               10.1107/S2052520615019885
_journal_volume                  71
_journal_year                    2015
_chemical_formula_sum            'C3.2 H9.6 I2.4 N1.6 Pb0.4'
_chemical_formula_weight         457.96
_chemical_name_common            'piperazinium lead iodide'
_chemical_name_systematic
;
 ?
;
_space_group_crystal_system      monoclinic
_space_group_IT_number           13
_space_group_name_Hall           '-P 2yac'
_space_group_name_H-M_alt        'P 1 2/n 1'
_symmetry_space_group_name_Hall  '-P 2yac'
_symmetry_space_group_name_H-M   'P 1 2/n 1'
_atom_sites_solution_hydrogens   geom
_audit_creation_method           SHELXL-2014
_cell_angle_alpha                90
_cell_angle_beta                 93.553(3)
_cell_angle_gamma                90
_cell_formula_units_Z            5
_cell_length_a                   9.8058(3)
_cell_length_b                   9.2603(3)
_cell_length_c                   12.4081(4)
_cell_measurement_temperature    150(2)
_cell_volume                     1124.55(6)
_computing_structure_refinement  'SHELXL-2014 (Sheldrick, 2014)'
_diffrn_ambient_temperature      150(2)
_diffrn_measured_fraction_theta_full 0.997
_diffrn_measured_fraction_theta_max 0.845
_diffrn_measurement_device_type  'SuperNova, Dual, Cu at zero, EosS2'
_diffrn_radiation_type           MoK\a
_diffrn_radiation_wavelength     0.71073
_diffrn_reflns_av_R_equivalents  0.0295
_diffrn_reflns_limit_h_max       11
_diffrn_reflns_limit_h_min       -13
_diffrn_reflns_limit_k_max       11
_diffrn_reflns_limit_k_min       -12
_diffrn_reflns_limit_l_max       16
_diffrn_reflns_limit_l_min       -9
_diffrn_reflns_number            5870
_diffrn_reflns_theta_full        25.242
_diffrn_reflns_theta_max         29.366
_diffrn_reflns_theta_min         3.385
_exptl_absorpt_coefficient_mu    15.734
_exptl_absorpt_correction_T_max  1.00000
_exptl_absorpt_correction_T_min  0.92331
_exptl_absorpt_correction_type   multi-scan
_exptl_crystal_colour            yellow
_exptl_crystal_density_diffrn    3.381
_exptl_crystal_description       columnar
_exptl_crystal_F_000             1000
_exptl_crystal_size_max          0.4
_exptl_crystal_size_mid          0.3
_exptl_crystal_size_min          0.1
_refine_diff_density_max         1.304
_refine_diff_density_min         -1.137
_refine_ls_extinction_method     none
_refine_ls_goodness_of_fit_ref   1.043
_refine_ls_hydrogen_treatment    constr
_refine_ls_matrix_type           full
_refine_ls_number_parameters     87
_refine_ls_number_reflns         2624
_refine_ls_number_restraints     0
_refine_ls_restrained_S_all      1.043
_refine_ls_R_factor_all          0.0334
_refine_ls_R_factor_gt           0.0271
_refine_ls_shift/su_max          0.001
_refine_ls_shift/su_mean         0.000
_refine_ls_structure_factor_coef Fsqd
_refine_ls_weighting_details
'w=1/[\s^2^(Fo^2^)+(0.0115P)^2^] where P=(Fo^2^+2Fc^2^)/3'
_refine_ls_weighting_scheme      calc
_refine_ls_wR_factor_gt          0.0468
_refine_ls_wR_factor_ref         0.0486
_reflns_number_gt                2339
_reflns_number_total             2624
_reflns_threshold_expression     'I > 2\s(I)'
_cod_data_source_file            ps5046sup1.cif
_cod_data_source_block           shelx7
_cod_original_formula_sum        'C3.20 H9.60 I2.40 N1.60 Pb0.40'
_cod_database_code               2107273
_shelx_space_group_comment
;
The symmetry employed for this shelxl refinement is uniquely defined
by the following loop, which should always be used as a source of
symmetry information in preference to the above space-group names.
They are only intended as comments.
;
_shelx_hkl_file
;
   0   0   3    0.56    0.67
   0   0   4 5410.52  115.02
   0   0  -5    0.88    0.69
   0   0   5    1.10    0.90
   0   0  -6  441.74   13.03
   0   0   6  450.26   12.99
   0   0   7    1.67    0.85
   0   0   8 1716.61   41.20
   0   0   9    1.33    0.90
   0   0  10   43.58    4.04
   0   0  11    3.96    1.72
   0   0  12  403.76   15.38
   0   0  13    0.66    1.70
   0   0  14    4.06    2.33
   0   0  15    2.71    1.92
   0   0  16   26.22    4.28
   0  -1   2   14.12    1.16
   0   1   2   14.68    1.09
   0  -1   2   15.43    1.33
   0  -1  -3  393.48    9.51
   0  -1   3  378.24   10.44
   0   1   3  393.34   10.01
   0  -1   3  375.44   10.13
   0   1   4   11.75    1.28
   0  -1  -4   11.06    1.18
   0  -1   4    9.50    1.28
   0  -1  -5  152.59    5.68
   0  -1   5  141.26    5.69
   0  -1  -5  141.41    5.22
   0   1   5  136.47    5.47
   0  -1  -6    5.06    1.16
   0   1   6    4.61    1.08
   0  -1   6    5.24    1.38
   0  -1  -6    4.27    1.07
   0  -1  -7  305.08   10.13
   0   1   7  324.83   10.58
   0  -1   7  318.21   10.89
   0   1   8    1.92    1.16
   0  -1   8    2.07    1.14
   0   1   9   47.52    3.92
   0  -1   9   46.19    3.98
   0   1  10    0.87    1.25
   0  -1  10    0.89    1.39
   0   1  11  189.26    9.28
   0  -1  11  204.25    9.77
   0   1  12    2.23    1.74
   0  -1  12   -0.99    1.50
   0  -1  13   11.15    2.72
   0   1  13   10.99    2.72
   0   1  14    3.99    2.06
   0  -1  14    1.32    1.82
   0  -1  15  119.71    8.64
   0   1  15  113.07    8.50
   0   1  16    2.48    1.97
   0   2   0   84.87    2.77
   0  -2   0   82.00    2.73
   0  -2  -1  186.84    5.28
   0  -2   1  188.48    5.52
   0   2   1  184.18    4.92
   0   2   2 1701.54   36.57
   0  -2   2 1654.70   37.36
   0  -2   2 1665.54   37.22
   0  -2  -3  416.07   10.99
   0  -2   3  425.88   11.46
   0  -2   3  427.39   11.78
   0  -2  -4   46.24    2.80
   0  -2  -4   59.96    2.40
   0  -2   4   59.28    3.29
   0   2   4   56.41    2.99
   0  -2   4   55.51    3.40
   0   2   5   53.43    3.18
   0  -2   5   54.79    3.37
   0  -2  -5   54.29    3.18
   0  -2  -5   57.46    2.71
   0   2   6  525.44   14.37
   0  -2  -6  474.50   13.11
   0  -2  -6  518.61   14.37
   0  -2   6  508.70   14.76
   0   2   7   63.39    3.94
   0  -2   7   62.61    4.17
   0  -2  -7   59.30    3.42
   0  -2   8  106.90    6.05
   0  -2  -8  115.24    5.33
   0   2   8  108.93    5.77
   0  -2   9    3.11    1.34
   0   2   9    5.27    1.53
   0  -2  10   59.62    4.90
   0   2  10   57.67    4.74
   0  -2  11    4.58    1.70
   0   2  11    3.24    1.57
   0   2  12  175.87    9.33
   0  -2  12  178.97    9.71
   0  -2  13   23.97    3.68
   0   2  13   17.02    3.01
   0   2  14    7.15    2.38
   0  -2  14    3.07    2.08
   0  -2  15    4.22    2.31
   0   2  15    3.18    1.73
   0   2  16  142.83    9.85
   0   3   0    8.26    0.93
   0  -3   0    8.67    0.95
   0  -3   1   45.59    2.50
   0  -3  -1   45.33    2.43
   0   3  -1   45.64    2.46
   0  -3  -1   42.82    1.98
   0  -3  -1   45.15    1.78
   0   3   2    7.79    0.94
   0   3  -2    6.62    1.19
   0  -3   2    6.60    1.25
   0  -3  -2    6.43    0.94
   0   3   2    7.13    1.02
   0  -3   3   84.20    4.13
   0   3   3   87.48    3.70
   0  -3   3   90.25    4.38
   0  -3  -4   11.65    1.44
   0  -3   4   13.03    1.86
   0   3   4   12.65    1.42
   0  -3   4    9.44    1.47
   0  -3  -4   12.02    0.81
   0  -3   5   10.20    1.66
   0  -3  -5   14.20    1.08
   0  -3  -5   12.90    1.66
   0  -3  -6   13.27    1.73
   0  -3   6   15.65    2.13
   0  -3  -6   13.74    1.35
   0  -3  -7   95.18    4.07
   0  -3   7   96.38    5.52
   0   3   7   96.07    5.10
   0   3   8   24.23    2.68
   0  -3  -8   19.88    1.97
   0  -3   8   24.81    2.85
   0   3   9    0.97    0.93
   0  -3   9    1.88    1.13
   0  -3  -9    3.19    1.09
   0  -3  10   18.63    2.84
   0   3  10   18.28    2.58
   0  -3  11   85.24    6.32
   0   3  11   84.36    5.90
   0   3  12   26.62    3.52
   0  -3  12   30.71    4.12
   0  -3  13    2.52    1.85
   0   3  13    1.32    1.87
   0  -3  14   22.57    3.96
   0   3  14   24.15    3.85
   0   3  15   57.24    5.77
   0  -3  15   56.20    6.31
   0   3  16   22.77    4.08
   0   4   0  932.45   21.42
   0  -4   0  892.30   21.35
   0  -4  -1 1746.30   38.11
   0  -4  -1 1771.03   39.40
   0  -4  -1 1715.63   37.85
   0   4  -1 1804.35   39.45
   0  -4   1 1688.88   39.24
   0   4  -2   28.80    2.37
   0  -4   2   23.18    2.23
   0  -4  -2   21.77    1.89
   0  -4  -2   21.54    1.15
   0   4   3 1030.52   24.32
   0   4   3 1079.58   24.96
   0  -4   3 1044.06   25.97
   0   4  -3 1031.16   25.99
   0  -4  -3 1038.04   24.79
   0  -4   3 1020.74   25.77
   0  -4   4  827.54   21.95
   0  -4  -4  795.98   21.15
   0   4   4  907.84   21.12
   0   4   5 1163.08   27.01
   0  -4   5 1107.09   28.14
   0  -4  -5 1059.14   27.14
   0   4   6    1.74    0.77
   0  -4   6    1.56    1.04
   0  -4  -6    1.28    0.35
   0  -4  -7  424.82   10.86
   0  -4   7  431.66   14.36
   0  -4   8  388.94   13.99
   0  -4  -8  387.75   10.65
   0  -4  -9  305.63    9.37
   0  -4   9  289.82   12.16
   0  -4  10   -1.09    1.36
   0  -4  11   75.58    6.10
   0  -4  12  107.01    7.68
   0  -4  13   48.58    5.41
   0  -4  14    3.68    2.25
   0   5   0  408.79   11.30
   0  -5   0  405.80   11.24
   0  -5   1   24.21    2.20
   0  -5  -1   30.15    2.50
   0  -5  -1   27.81    1.92
   0   5  -1   30.28    2.37
   0  -5   2  334.52   10.90
   0  -5  -2  357.46   10.75
   0   5   2  339.02    8.37
   0  -5   2  357.31    8.53
   0   5  -2  360.51   11.25
   0  -5  -3   49.45    3.24
   0  -5   3   53.15    3.77
   0   5   3   60.51    3.10
   0  -5   4  292.93   10.70
   0   5   4  318.46    9.55
   0  -5   5   12.42    2.15
   0   5   5   10.14    1.56
   0   5   5    9.91    1.52
   0  -5   6  193.98    8.74
   0   5   6  202.53    7.77
   0  -5   7   79.37    5.43
   0  -5   8  133.36    7.47
   0  -5   9    2.97    1.48
   0  -5  10   78.42    6.30
   0  -5  11   69.24    6.01
   0  -5  12   39.94    4.89
   0  -5  13    2.68    1.95
   0  -6   0  400.33   11.09
   0   6  -1  157.07    6.39
   0  -6  -1  147.72    5.36
   0  -6  -1  144.69    6.55
   0  -6  -2    4.79    1.24
   0  -6   3  123.97    4.14
   0   6   3  120.10    4.00
   0  -6  -3  118.35    5.70
   0  -6   3  111.74    6.13
   0  -6   4  394.12   13.47
   0  -6   5   47.29    4.01
   0   6   5   46.67    3.24
   0  -6   6    2.04    1.32
   0  -6   7   27.01    3.35
   0  -6   8  223.96   10.61
   0  -6   9    6.21    1.98
   0  -6  10    5.11    2.30
   0  -6  11   10.27    2.64
   0  -6  12   79.52    7.07
   0  -6  13   25.14    4.11
   0  -7   0    4.05    0.94
   0  -7  -1   55.64    4.16
   0  -7  -2    3.25    1.26
   0  -7  -3   62.10    4.29
   0  -7   3   67.60    4.92
   0   7  -4    6.22    0.59
   0   7   4    8.62    1.03
   0  -7   4    8.65    1.09
   0  -7   4   10.85    2.22
   0  -7   5    9.00    2.21
   0  -7   6    6.69    1.69
   0  -7   7   41.08    4.39
   0  -7   8   11.06    2.60
   0  -7   9    3.35    2.22
   0  -7  10   14.82    3.26
   0  -7  11   12.14    3.07
   0  -7  12   28.52    4.68
   0  -8   0   52.77    4.46
   0  -8   0   51.45    3.18
   0  -8  -1  332.20   12.39
   0  -8   1  329.04   10.36
   0  -8  -2  534.12   16.85
   0  -8  -3  327.60   11.91
   0  -8   3  311.15   12.59
   0  -8   4   29.49    3.52
   0  -8   5  182.87    9.40
   0  -8   6  296.27   12.92
   0  -8   7  125.05    8.16
   0  -8   8    5.91    2.38
   0  -8   9   89.19    7.19
   0  -8  10  107.00    8.29
   0  -8  11   37.10    5.17
   0  -9   0  110.87    6.94
   0  -9  -1  158.55    8.31
   0  -9  -2   87.90    5.99
   0  -9   3   82.74    6.29
   0  -9  -3   97.76    6.15
   0  -9   4   90.01    6.58
   0  -9   5  108.87    7.47
   0  -9   6   51.14    5.27
   0  -9   7   19.46    3.53
   0  -9   8   60.52    6.00
   0  -9   9   40.95    5.13
   0  -9  10   40.66    5.19
   0 -10   0  258.71   11.87
   0 -10   1   37.40    4.43
   0 -10  -1   43.74    4.44
   0 -10  -2    9.26    2.17
   0 -10   2    8.21    2.62
   0 -10   3   41.10    4.69
   0 -10  -3   47.22    4.46
   0 -10   4  158.35    9.42
   0 -10   5   39.97    4.79
   0 -10   6    3.00    1.97
   0 -10   7   36.70    4.68
   0 -10   8   57.73    6.15
   0 -11   0   72.12    6.28
   0 -11   1   15.32    3.26
   0 -11  -1   19.80    3.32
   0 -11   2   54.61    5.59
   0 -11   2   54.66    5.62
   0 -11   3   26.79    4.09
   0 -11   4   46.33    5.23
   0 -11   5    4.92    1.92
   0 -11   6   27.73    4.33
   0 -12   1    3.98    2.45
   0 -12   1    4.16    2.09
   0 -12   2  204.07   11.63
   0 -12   2  209.12   12.08
   0 -12   3    5.06    2.51
   0 -12   3    5.20    2.37
   0 -12   4   26.81    4.41
  -1   0  15  111.13    8.47
  -1   0  14   -1.23    1.38
  -1   0  13    8.36    2.49
  -1   0  12    4.18    2.10
  -1   0  11  181.13    9.27
  -1   0  10   -0.67    1.22
  -1   0   9   37.50    3.59
  -1   0   8   -0.37    0.93
  -1   0   7  270.65    9.77
  -1   0   6   -0.08    0.74
  -1   0   5  121.05    5.25
  -1   0   4    1.18    0.98
  -1   0   3  370.84    9.83
  -1   0   2    0.84    0.53
   1   0   2   -0.41    0.39
   1   0   2   -0.04    0.50
   1   0   3  461.48   11.29
   1   0   3  443.89   11.47
   1   0   4   -0.51    0.72
   1   0   4    1.06    0.72
  -1   0  -4    0.04    0.51
  -1   0  -4   -1.15    0.71
   1   0   5  155.79    5.93
  -1   0  -5  152.34    5.71
   1   0   5  152.24    5.72
  -1   0  -5  155.58    6.01
  -1   0  -6   -0.38    0.66
   1   0   6    1.01    0.89
   1   0   6    0.54    1.02
  -1   0  -6   -1.28    0.81
   1   0   7  363.64   11.55
   1   0   8   -0.15    0.85
   1   0   9   48.24    3.91
   1   0  10    1.60    1.48
   1   0  11  187.26    9.09
   1   0  12    1.19    1.47
   1   0  13   10.66    2.76
   1   0  14    1.31    1.62
   1   0  15   84.86    7.32
   1   0  16    0.38    2.00
  -1   1  16  231.79   13.06
  -1   1  15  127.25    9.08
  -1  -1  15  120.14    9.20
  -1   1  14   27.96    4.07
  -1  -1  14   26.58    4.13
  -1   1  13  241.07   11.75
  -1  -1  13  233.96   11.88
  -1   1  12  483.97   17.29
  -1  -1  12  453.65   17.15
  -1  -1  11  255.36   11.54
  -1   1  11  270.27   11.50
  -1   1  10   32.75    3.49
  -1  -1  10   31.96    3.53
  -1  -1   9  275.59   10.92
  -1   1   9  283.93   10.96
  -1   1   8  936.37   24.28
  -1  -1   8  857.97   24.02
   1  -1  -7  267.94    9.24
  -1   1   7  267.92    9.53
  -1  -1   7  251.31    9.45
  -1   1   6    8.61    1.60
  -1  -1   6    6.06    1.31
  -1  -1   5  151.59    6.07
  -1   1   5  161.94    6.17
  -1   1   4 1317.68   30.05
  -1  -1   4 1270.74   29.87
  -1   1   3    8.94    1.21
  -1  -1   3    4.57    0.96
  -1  -1   2   10.36    1.01
  -1  -1   1    5.47    0.61
  -1  -1  -1  117.33    3.87
  -1   1  -1  127.66    3.74
  -1  -1  -1  121.68    3.68
   1   1   2    3.01    0.50
  -1  -1  -2    2.36    0.44
   1  -1   2    2.85    0.67
   1  -1   2    2.91    0.77
   1   1   2    3.43    0.51
   1  -1   3  628.06   14.87
   1   1   3  585.84   13.99
  -1  -1  -3  607.13   14.11
   1   1   3  600.15   14.09
   1  -1   3  611.67   15.20
  -1  -1  -3  580.83   14.03
   1   1   4  506.01   12.97
   1  -1   4  531.08   14.02
  -1  -1  -4  523.88   13.05
   1  -1   4  533.61   13.66
  -1  -1  -4  507.27   12.91
   1   1   4  508.71   12.87
  -1  -1  -5  482.72   13.25
   1   1   5  509.58   13.34
   1   1   5  488.09   13.31
   1  -1   5  543.72   14.54
   1  -1   5  535.10   14.02
  -1  -1  -5  504.52   13.44
   1   1   6   70.36    3.80
   1  -1   6   79.15    4.24
  -1   1  -6   75.27    4.43
   1  -1   6   81.79    4.64
  -1  -1  -6   69.65    3.81
  -1  -1  -6   67.33    3.71
   1   1   7  613.82   17.03
  -1  -1  -7  589.25   16.86
   1  -1   7  659.42   17.78
   1  -1   7  651.83   18.14
   1  -1   8  225.84    8.89
   1   1   8  210.96    8.42
   1   1   9  506.62   16.06
   1  -1   9  551.82   16.83
   1   1  10   41.63    3.79
   1  -1  10   45.02    4.20
   1  -1  11  485.26   16.81
   1   1  11  458.04   15.93
   1   1  12   86.51    6.29
   1  -1  12   94.87    6.66
   1   1  13  250.40   11.86
   1  -1  13  260.24   12.19
   1   1  14   23.32    3.65
   1  -1  14   25.44    4.00
   1  -1  15  201.71   11.55
   1   1  15  202.31   11.31
   1   1  16   62.50    6.61
  -1   2  16   -0.23    1.89
  -1   2  15  113.56    8.51
  -1  -2  15  122.32    9.03
  -1   2  14    2.31    1.79
  -1  -2  14    0.76    1.73
  -1  -2  13   17.67    3.13
  -1   2  13   13.02    2.72
  -1   2  12    5.54    2.20
  -1  -2  12    4.28    2.03
  -1   2  11  184.08    9.41
  -1  -2  11  189.71    9.63
  -1  -2  10    2.96    1.56
  -1   2  10    2.36    1.57
  -1  -2   9   47.99    4.19
  -1   2   9   44.16    3.96
  -1   2   8   12.56    2.09
   1  -2  -8   10.86    1.64
  -1  -2   8    7.04    1.76
  -1   2   7  260.23    9.55
  -1  -2   7  256.96    9.56
   1  -2  -7  254.12    8.62
  -1   2   6    9.49    1.62
  -1  -2   6    8.37    1.60
  -1  -2   5   90.44    4.55
  -1   2   5   95.27    4.62
  -1  -2   4   17.11    1.74
  -1  -2   3  220.50    6.92
  -1  -2   2   16.89    1.43
  -1   2   2   19.11    1.00
  -1  -2   1  130.42    4.10
  -1  -2   0   31.03    1.99
   1  -2   1   93.34    3.12
   1  -2   1   92.07    3.73
  -1  -2  -1  104.09    3.19
   1   2   1  100.37    3.17
  -1  -2  -1   94.91    3.77
  -1   2  -1   98.51    3.19
  -1  -2  -1   98.11    3.62
  -1   2  -2   29.11    1.39
   1   2   2   29.91    1.80
   1  -2   2   30.26    1.44
   1  -2   2   30.57    2.18
   1  -2   2   31.14    1.84
  -1  -2  -2   29.59    1.51
   1  -2   3  137.90    5.54
   1  -2   3  145.43    4.15
   1   2   3  144.73    3.90
   1  -2   3  147.85    5.52
  -1  -2  -3  146.85    4.58
   1   2   4   41.87    2.33
   1  -2   4   35.87    2.58
   1   2   4   41.09    1.91
   1  -2   4   37.46    2.88
  -1  -2  -4   38.77    2.28
   1  -2   5   22.54    2.53
  -1  -2  -5   21.84    1.60
  -1  -2  -5   23.47    1.91
   1   2   5   21.60    1.87
   1  -2   5   18.98    2.05
  -1  -2  -6   30.29    2.18
   1  -2   6   37.21    2.98
  -1  -2  -6   34.41    2.55
   1   2   6   34.65    2.59
   1  -2   6   35.30    3.30
   1  -2   7  146.09    7.10
   1  -2   7  143.13    6.67
   1   2   7  135.43    5.96
  -1  -2  -7  128.92    5.45
  -1  -2  -8   33.85    2.79
   1   2   8   33.32    2.96
   1  -2   8   41.98    3.65
   1  -2   9    4.99    1.72
   1   2   9    2.24    1.02
   1  -2  10   29.27    3.52
   1   2  10   30.58    3.28
   1   2  11  104.09    6.55
   1  -2  11  127.91    7.52
   1  -2  12   35.38    4.24
   1   2  12   27.94    3.54
   1   2  13    3.98    1.77
   1  -2  13    4.38    2.00
   1  -2  14   18.59    3.53
   1   2  14   17.11    3.25
   1   2  15   76.83    6.82
   1  -2  15   94.39    7.81
   1   2  16   13.25    3.06
  -1  -3  15  129.41    9.40
  -1   3  15  125.83    9.05
  -1  -3  14  160.70   10.39
  -1   3  14  177.04   10.25
  -1  -3  13  139.57    9.09
  -1   3  13  129.45    8.45
  -1   3  12    5.75    2.18
  -1  -3  12    0.25    1.35
  -1   3  11  234.05   10.76
  -1  -3  11  243.10   11.40
  -1   3  10  332.03   12.78
  -1  -3  10  322.68   12.99
  -1   3   9  257.73   10.42
   1  -3  -9  252.39    9.16
  -1  -3   9  265.95   10.95
   1  -3  -8   46.76    3.26
  -1  -3   8   50.68    4.08
   1  -3  -7  286.20    8.82
  -1  -3   7  270.23   10.34
  -1  -3   6  293.61   10.38
  -1  -3   5  152.95    6.36
   1  -3  -5  141.78    6.12
  -1   3   4  342.23    8.95
  -1  -3   4  324.65   10.25
   1  -3  -4  326.58   10.29
  -1  -3   3  269.38    8.58
  -1   3   3  285.36    7.49
   1  -3  -2   98.91    3.41
  -1  -3   2  104.74    4.20
   1   3  -2  111.89    4.59
   1   3  -1   20.43    1.66
   1  -3   0 1115.62   25.90
   1   3   0 1153.79   25.43
  -1  -3  -1    2.92    0.78
   1   3   1    2.51    0.47
   1  -3   1    2.96    0.90
  -1  -3  -1    1.38    0.71
   1  -3   2   25.34    1.59
   1   3   2   24.97    1.56
  -1  -3  -2   22.17    1.95
   1   3   2   22.42    1.83
   1   3   2   23.07    1.95
  -1   3  -2   23.29    1.33
   1  -3   2   23.38    2.04
   1  -3   3    6.31    1.40
  -1  -3  -3    4.28    0.77
   1   3   3    5.73    0.98
   1   3   3    6.89    1.17
   1  -3   4 1421.70   30.91
  -1  -3  -4 1402.30   32.41
   1  -3   4 1430.67   34.33
   1   3   4 1486.58   33.63
   1  -3   4 1419.64   33.88
   1  -3   5   58.19    3.79
  -1  -3  -5   55.77    3.14
   1  -3   5   55.31    2.27
   1  -3   5   60.68    4.18
   1  -3   6  194.56    8.11
   1   3   6  204.77    7.37
  -1  -3  -6  216.10    7.55
   1  -3   6  209.54    8.84
   1  -3   7   32.02    3.36
   1  -3   7   26.78    2.84
  -1  -3  -7   26.20    1.99
   1   3   7   27.20    2.52
   1   3   8 1232.80   30.64
   1  -3   8 1230.77   31.99
  -1  -3  -8 1225.83   29.11
   1  -3   9   62.17    5.10
  -1  -3  -9   53.33    3.55
   1   3   9   58.66    4.28
   1  -3  10  200.82    9.58
   1   3  10  191.15    8.73
   1   3  11   22.33    3.07
   1  -3  11   25.30    3.98
   1  -3  12  719.52   23.45
   1   3  12  694.88   22.03
   1  -3  13   61.09    5.89
   1   3  13   47.31    4.72
   1   3  14   97.71    7.25
   1  -3  14  111.65    8.35
   1   3  15    4.62    2.20
   1  -3  15    5.91    2.50
   1   3  16  266.47   13.60
  -1  -4  14   19.86    3.71
  -1  -4  13    7.88    2.79
  -1  -4  12   47.11    5.15
  -1  -4  11   26.19    3.68
  -1  -4  10   41.27    4.33
  -1  -4   9    5.42    1.69
   1  -4  -9    4.78    1.13
  -1  -4   8   74.85    5.30
   1  -4  -8   75.76    3.78
  -1   4   7   42.61    2.92
   1  -4  -7   36.81    2.39
  -1  -4   7   43.54    3.84
  -1   4   6   82.57    3.94
  -1  -4   6   75.63    4.81
  -1   4   5    4.85    0.91
  -1  -4   5    6.49    1.45
  -1   4   4  125.51    4.59
  -1  -4   4  117.77    5.55
   1   4  -3   77.94    4.30
  -1   4   3   73.82    3.00
  -1  -4   3   77.11    4.06
   1  -4  -2  115.84    4.28
   1   4  -2  120.47    5.12
  -1  -4   2  108.35    4.79
   1   4  -1   86.71    3.90
   1  -4  -1   82.69    3.49
  -1  -4   0  127.95    3.42
   1  -4   0  129.77    4.90
  -1   4   0  125.99    3.42
   1   4   0  135.81    4.64
  -1  -4  -1  111.07    5.10
   1  -4   1  113.51    4.87
  -1  -4  -1  109.90    4.56
   1   4   1  120.12    3.74
  -1   4  -2   99.75    4.86
  -1  -4  -2  105.98    4.82
   1  -4   2  108.62    5.03
   1   4   2  106.99    3.70
   1  -4   2  109.31    3.76
   1   4   3  221.19    6.86
   1  -4   3  214.00    8.25
  -1   4  -3  217.70    8.29
   1   4   3  227.93    7.93
  -1   4  -3  219.04    5.95
   1  -4   3  231.70    7.00
   1   4   3  220.49    7.59
   1   4   4  102.45    4.90
   1  -4   4   95.99    5.25
  -1  -4  -4   97.40    4.36
   1   4   4  103.49    5.00
   1  -4   4  107.35    5.65
   1  -4   5   91.32    5.48
   1  -4   5   94.45    5.28
   1   4   5   99.52    5.01
  -1  -4  -5   97.04    4.55
  -1  -4  -6   60.78    3.71
   1  -4   6   62.29    4.38
   1  -4   6   68.95    4.91
   1  -4   7  242.77   10.37
   1  -4   7  254.92   10.09
   1  -4   7  232.44    6.31
   1  -4   8   50.45    4.44
   1  -4   8   45.06    2.18
   1  -4   9   50.21    4.54
   1  -4  10   22.78    3.31
   1  -4  11  183.20    9.90
   1  -4  12   17.60    3.24
   1  -4  13   11.95    2.98
   1  -4  14    8.33    2.59
  -1  -5  13   26.52    4.21
  -1  -5  12  631.70   22.49
  -1  -5  11   46.03    4.90
  -1  -5  10   82.58    6.36
  -1  -5   9   40.83    4.30
  -1  -5   8  878.84   25.55
  -1   5   8  878.20   22.72
  -1   5   7   90.15    4.61
   1  -5  -7   94.52    3.54
  -1  -5   7   86.55    5.70
  -1   5   6   43.03    2.86
  -1  -5   6   37.36    3.51
  -1  -5   5   54.95    4.00
  -1   5   4  801.72   19.03
  -1  -5   4  758.86   21.11
   1  -5  -3  174.20    5.27
   1  -5  -3  171.20    6.08
  -1  -5   3  168.36    7.07
   1  -5  -2   64.88    3.41
   1   5  -2   64.30    3.90
   1  -5  -2   69.10    3.06
  -1  -5   2   67.63    3.96
   1  -5  -1   61.88    3.17
   1   5  -1   64.79    3.53
   1   5   0  398.19   10.81
   1  -5   0  382.54   11.17
  -1  -5  -1  157.98    6.64
  -1  -5  -1  156.83    5.92
   1   5   1  155.88    5.00
   1  -5   1  142.94    6.12
  -1   5  -2  381.73   12.02
  -1  -5  -2  381.23   12.00
   1  -5   2  374.15   11.93
   1  -5   3  106.68    5.61
   1   5   3  102.81    3.97
  -1   5  -3   98.75    3.57
  -1  -5  -3  106.06    5.28
   1  -5   3  108.76    4.14
  -1  -5  -4   11.11    1.53
   1   5   4   12.40    1.47
   1   5   4   11.87    1.70
   1  -5   4   13.73    1.58
   1  -5   4   14.51    2.21
   1  -5   4   14.81    2.37
   1   5   5   77.86    4.27
   1  -5   5   74.23    5.18
   1  -5   5   88.65    4.51
   1  -5   5   78.48    5.15
  -1  -5  -5   79.09    4.28
   1  -5   6  464.31   15.77
   1  -5   6  455.18   15.30
   1  -5   7   90.00    6.23
   1  -5   7   89.29    5.89
   1  -5   8   18.63    2.81
   1  -5   9   34.38    3.90
   1  -5  10  439.93   16.77
   1  -5  11   48.57    5.20
   1  -5  12   15.53    3.26
   1  -5  13   19.86    3.83
  -1  -6  13   14.10    3.28
  -1  -6  12   69.76    6.64
  -1  -6  11  104.53    7.90
  -1  -6  10   65.46    5.95
  -1  -6   9   21.67    3.27
  -1  -6   8  110.04    7.03
  -1  -6   7   99.45    6.36
  -1   6   7  110.04    5.36
  -1   6   6   82.17    4.37
  -1  -6   6   89.76    5.75
  -1   6   5   29.75    2.28
  -1  -6   5   20.48    2.64
  -1  -6   4   99.47    5.73
   1  -6  -4  105.36    3.44
   1  -6  -3   42.46    2.95
   1  -6  -3   48.55    2.38
  -1  -6   3   48.31    3.66
   1  -6  -2   74.45    3.42
  -1  -6   2   74.62    4.50
   1  -6  -2   76.96    4.14
   1  -6  -1   10.47    1.37
   1   6  -1   10.38    1.55
  -1  -6   0   81.74    4.97
   1   6   0   81.24    3.91
  -1  -6   0   80.37    4.14
   1  -6   0   76.59    3.08
   1  -6   0   75.62    4.11
  -1  -6  -1    2.17    1.12
   1   6   1    1.84    0.66
   1  -6   1    2.32    0.94
  -1  -6  -1    0.77    0.71
  -1  -6  -2   44.82    3.58
   1  -6   2   41.47    3.35
   1  -6   3    1.78    0.58
   1  -6   3    2.54    1.31
  -1  -6  -3    2.14    1.03
  -1   6  -3    2.64    0.63
   1   6   4   46.78    2.73
   1  -6   4   44.39    3.98
  -1   6  -4   39.32    1.91
   1  -6   4   44.08    2.72
   1  -6   4   40.48    3.74
   1  -6   5   18.20    2.61
   1  -6   5   17.65    2.66
   1   6   5   19.10    2.00
   1  -6   5   17.95    1.88
   1  -6   6   25.76    3.35
   1  -6   6   22.63    2.98
   1  -6   7   -0.22    1.21
   1  -6   8   28.08    3.72
   1  -6   9   41.61    4.54
   1  -6  10    8.70    2.31
   1  -6  11    0.28    1.57
   1  -6  12   16.63    3.34
   1  -6  13   33.75    5.15
  -1  -7  12   10.51    2.84
  -1  -7  11    5.18    2.43
  -1  -7  10  226.31   11.89
  -1  -7   9    4.36    2.11
  -1  -7   8    1.07    1.31
  -1  -7   7    9.49    2.42
  -1  -7   6  222.16   10.16
  -1  -7   5    9.79    2.18
  -1  -7   4   28.88    3.25
  -1   7   3   44.52    1.90
   1  -7  -3   44.76    3.32
   1  -7  -3   51.32    2.58
  -1  -7   3   47.57    3.96
   1  -7  -2  134.82    6.21
  -1  -7   2  125.45    6.53
   1  -7  -2  135.18    5.25
   1  -7  -1   64.07    3.74
   1  -7  -1   69.85    4.43
   1  -7   0  248.55    9.04
  -1  -7   0  267.98   10.59
   1   7   0  265.34    8.72
  -1  -7   0  267.65    9.07
   1  -7   0  254.38    7.34
  -1  -7  -1  219.39    7.90
  -1  -7  -1  210.58    9.10
   1  -7   1  207.81    8.44
   1  -7   2   16.68    2.40
  -1  -7  -2   15.37    2.26
  -1  -7  -3  132.77    6.85
  -1   7  -3  128.31    4.84
   1  -7   3  136.37    7.11
   1  -7   4  414.95   11.07
   1  -7   4  405.94   14.68
   1  -7   4  427.97   14.65
  -1   7  -4  389.01   10.15
   1  -7   5  277.21   11.72
   1  -7   6   12.34    2.43
   1  -7   7  235.07   11.16
   1  -7   8  395.14   15.78
   1  -7   9  204.60   11.03
   1  -7  10   13.66    3.02
   1  -7  11  168.59   10.51
   1  -7  12  218.37   12.58
  -1  -8  11    3.72    2.26
  -1  -8  10    2.04    1.66
  -1  -8   9   49.92    5.41
  -1  -8   8    6.50    2.27
  -1  -8   7    4.55    1.71
  -1  -8   6   10.81    2.47
  -1  -8   5   22.39    3.21
  -1  -8   4   33.72    3.62
   1  -8  -3    2.41    0.98
  -1  -8   3    4.54    1.82
   1  -8  -2   56.43    4.18
  -1  -8   2   54.21    4.50
  -1  -8   1    2.25    1.05
   1  -8  -1    3.31    1.41
   1  -8   0  113.14    4.25
  -1  -8   0  123.05    7.10
   1  -8   0  122.62    5.91
  -1  -8   0  122.68    5.84
   1  -8   1    2.40    0.83
   1  -8   1    0.47    1.01
  -1  -8  -1    0.88    0.81
  -1  -8  -1    0.80    1.48
  -1  -8  -2  144.65    7.66
  -1  -8  -3    4.17    1.61
  -1   8  -3    5.50    1.06
   1  -8   4  183.25    9.48
   1  -8   5   -0.32    1.19
   1  -8   6  163.52    9.26
   1  -8   7   23.07    3.55
   1  -8   8  178.29   10.27
   1  -8   9    0.51    1.73
   1  -8  10  131.02    9.22
   1  -8  11   32.75    4.69
  -1  -9  10    5.07    2.53
  -1  -9   9  191.06   11.19
  -1  -9   8   26.19    3.87
  -1  -9   7  191.76   10.57
  -1  -9   6   33.90    4.17
  -1  -9   5  150.83    8.76
  -1  -9   4   33.15    3.88
  -1  -9   3   96.39    6.67
   1  -9  -3  102.49    5.96
   1  -9  -2   90.68    5.69
  -1  -9   2   83.42    5.92
  -1  -9   1   53.34    5.14
   1  -9  -1   51.46    4.45
  -1  -9   1   50.42    3.81
  -1  -9   0   14.17    1.97
   1  -9   0   15.10    2.72
  -1  -9   0   14.86    2.69
  -1  -9  -1   26.05    3.48
  -1  -9  -2  153.56    8.40
  -1  -9  -3    0.44    1.18
   1  -9   4   12.83    2.83
   1  -9   5   -0.58    1.33
   1  -9   6  153.50    9.42
   1  -9   7   15.90    3.33
   1  -9   8   -0.41    1.78
   1  -9   9   18.59    3.74
  -1 -10   8  104.06    8.17
  -1 -10   7    1.75    1.81
  -1 -10   6   93.59    7.30
  -1 -10   5   16.04    3.24
  -1 -10   4   72.08    6.11
  -1 -10   3    2.12    1.76
   1 -10  -2   50.01    4.43
  -1 -10   2   51.99    5.36
  -1 -10   2   40.97    4.51
  -1 -10   1   10.28    2.23
   1 -10  -1    9.79    2.19
  -1 -10   1    6.05    2.09
   1 -10   0   26.86    3.56
  -1 -10   0   24.87    3.57
  -1 -10  -1   10.71    2.43
  -1 -10  -2    5.66    1.69
   1 -10   3    1.53    1.66
  -1 -10  -3    3.99    1.88
   1 -10   4    2.90    2.06
   1 -10   5    6.98    2.26
   1 -10   6    1.83    1.78
   1 -10   7    2.10    2.06
   1 -10   8   -1.37    2.17
  -1 -11   7    1.79    1.93
  -1 -11   6   34.21    4.60
  -1 -11   5    1.82    1.98
  -1 -11   4    3.80    2.05
  -1 -11   3    6.71    2.66
  -1 -11   3    2.61    1.91
  -1 -11   2   55.49    5.41
  -1 -11   2   58.87    6.06
  -1 -11   1   22.83    3.48
  -1 -11   1   23.57    3.79
  -1 -11   0   -0.51    1.46
   1 -11   0    2.19    1.69
  -1 -11  -1   40.61    4.80
   1 -11   1   43.83    4.83
  -1 -11  -2   91.64    7.16
  -1 -11  -3   93.21    7.06
   1 -11   3   88.75    7.39
   1 -11   4    3.62    2.23
   1 -11   5   88.64    7.64
   1 -11   6  104.96    8.46
  -1 -12   4   -0.13    1.93
  -1 -12   3   10.00    3.16
  -1 -12   3    5.41    2.20
  -1 -12   2    7.88    2.62
  -1 -12   1   20.38    3.94
  -1 -12   0   16.47    3.48
   1 -12   2   19.91    3.89
   1 -12   3   34.46    5.08
  -2   0  15    2.91    1.59
  -2   0  14    8.45    2.51
  -2   0  13   -0.29    1.54
  -2   0  12  113.22    7.62
  -2   0  11   -2.23    1.73
  -2   0  10  235.46   10.42
  -2   0   9    0.12    1.08
  -2   0   8    8.24    1.79
  -2   0   7    1.49    1.12
  -2   0   6  746.14   19.93
  -2   0   5    1.44    1.10
  -2   0   4   59.32    3.29
  -2   0   3    1.20    0.88
  -2   0   2 1943.45   42.49
  -2   0   1    0.61    0.38
  -2   0   1    0.09    0.49
  -2   0   0    6.54    0.86
  -2   0   0    5.40    0.75
  -2   0  -1   -0.20    0.49
  -2   0  -2 1596.77   35.81
   2   0   2 1590.99   34.55
   2   0   3   -0.03    0.60
   2   0   3    0.43    0.44
   2   0   4   26.92    2.23
  -2   0  -4   30.23    2.04
   2   0   4   27.92    1.93
   2   0   5   -0.04    0.74
  -2   0  -5    0.38    0.63
   2   0   5   -0.16    0.63
   2   0   6  306.66    9.72
  -2   0  -6  320.20    9.93
   2   0   6  302.42   10.16
  -2   0  -6  312.78   10.35
   2   0   7    0.34    0.69
   2   0   7    0.80    0.93
   2   0   8  227.09    9.27
   2   0   8  236.32    8.90
   2   0   9    0.65    1.01
   2   0   9    2.31    1.57
   2   0  10   23.41    2.91
   2   0  11    1.15    1.14
   2   0  12  350.73   13.90
   2   0  13   -0.05    1.28
   2   0  14   37.45    4.63
   2   0  15    0.33    1.36
   2   0  16  227.42   12.63
  -2   1  15  106.00    8.34
  -2  -1  15  100.61    8.24
  -2  -1  14    3.24    1.72
  -2   1  14    2.01    1.66
  -2  -1  13   10.57    2.65
  -2   1  13   13.97    3.00
  -2  -1  12    1.63    1.74
  -2   1  12    4.89    2.19
  -2  -1  11  152.64    8.58
  -2   1  11  158.28    8.57
  -2   1  10    1.41    1.31
  -2  -1  10    1.44    1.49
  -2  -1   9   22.52    2.87
  -2   1   9   22.19    2.95
  -2  -1   8    0.26    0.87
  -2   1   8    1.94    1.19
  -2  -1   7  197.68    8.25
  -2   1   7  211.94    8.47
  -2  -1   6    1.07    1.02
  -2   1   6    0.89    0.89
  -2   1   5   68.73    3.95
  -2  -1   5   66.55    3.80
  -2   1   4   11.25    1.48
  -2  -1   4    4.53    1.07
  -2  -1   3  195.25    6.26
  -2  -1   2    4.98    0.75
  -2  -1   2    5.82    0.78
  -2  -1   1  149.27    4.27
   2   1  -1  153.29    4.28
   2  -1  -1  145.83    3.75
  -2  -1   1  152.31    4.96
  -2  -1   0   17.94    1.43
  -2   1   0   15.65    1.07
  -2   1   0   15.64    1.34
  -2  -1  -1  115.76    4.30
  -2   1  -1  113.91    3.89
  -2   1  -1  109.63    4.09
  -2  -1  -1  118.37    4.19
  -2  -1  -2   26.53    1.14
   2   1   2   25.62    1.10
  -2  -1  -2   27.49    1.96
  -2   1  -2   23.55    1.86
   2  -1   3  196.88    6.37
  -2  -1  -3  203.20    5.50
   2   1   3  199.20    5.46
   2  -1   3  183.40    6.75
   2   1   4   36.17    2.32
   2  -1   4   37.20    2.45
   2   1   4   36.15    2.05
  -2  -1  -4   37.49    2.08
   2  -1   4   33.56    2.63
   2  -1   5   37.91    2.72
   2   1   5   42.51    2.54
   2  -1   5   37.67    3.00
  -2  -1  -5   35.77    2.36
   2   1   5   40.23    2.62
   2   1   6   37.64    2.76
   2   1   6   42.43    2.78
   2  -1   6   37.69    3.17
  -2  -1  -6   37.23    2.64
   2  -1   6   42.61    3.03
  -2  -1  -7  172.62    6.80
   2   1   7  174.61    7.02
   2  -1   7  173.50    7.22
   2  -1   7  172.14    7.76
   2   1   7  166.92    6.68
   2   1   8   44.39    3.52
   2  -1   8   47.62    3.95
   2  -1   8   39.14    3.38
   2   1   8   44.94    3.37
   2   1   9   10.07    1.87
   2  -1   9   10.34    2.07
   2  -1   9    9.85    2.03
   2  -1  10   40.39    3.88
   2   1  10   36.66    3.50
   2   1  11  126.30    7.18
   2  -1  11  140.42    7.91
   2   1  12   31.32    3.71
   2  -1  12   32.77    3.90
   2  -1  13    5.28    2.14
   2   1  13    1.53    1.60
   2   1  14   20.43    3.44
   2  -1  14   22.03    3.81
   2  -1  15   91.83    7.50
   2   1  15   80.00    6.91
   2   1  16    8.42    2.65
   2  -1  16   14.36    3.44
  -2  -2  15    8.49    2.90
  -2   2  15   12.17    3.06
  -2   2  14    3.86    2.24
  -2  -2  14    8.28    2.55
  -2   2  13   41.58    4.86
  -2  -2  13   37.00    4.62
  -2  -2  12  433.49   17.03
  -2   2  12  472.46   17.28
  -2   2  11  110.35    7.15
  -2  -2  11   97.36    6.85
  -2  -2  10   85.42    6.02
  -2   2  10   95.50    6.27
  -2   2   9  164.87    8.01
  -2  -2   9  146.19    7.76
  -2   2   8 1463.76   35.29
  -2  -2   8 1314.93   34.97
  -2   2   7  448.43   14.00
  -2  -2   7  418.42   13.83
  -2  -2   6  407.52   12.89
  -2   2   6  423.00   13.03
  -2  -2   5  481.65   13.85
  -2  -2   4 2703.16   59.91
  -2  -2   4 2717.80   57.87
  -2  -2   3  585.53   13.60
  -2  -2   3  598.91   14.93
   2   2  -3  581.26   14.92
   2   2  -2  627.91   14.56
  -2  -2   2  632.72   15.21
   2   2  -2  629.25   15.18
  -2  -2   1  814.05   18.88
   2   2  -1  851.66   18.81
  -2  -2   0 3766.36   82.66
  -2  -2   0 3859.14   80.49
   2  -2   0 3845.02   80.60
  -2   2  -1  920.45   20.25
  -2  -2  -1  834.57   21.06
  -2  -2  -1  839.66   20.85
  -2  -2  -2  338.59    8.33
  -2   2  -2  385.59   10.27
  -2   2  -2  393.66    9.66
   2  -2   2  394.49   10.30
   2  -2   2  370.85   10.78
   2   2   2  372.31   10.17
   2  -2   2  389.64    9.67
  -2  -2  -2  377.57   10.19
   2  -2   3  380.42   10.68
  -2  -2  -3  358.27    8.82
   2  -2   3  386.36    9.69
   2   2   3  341.15   10.34
   2   2   3  358.33    8.84
   2  -2   3  371.04   11.18
   2   2   4 2187.23   49.24
   2   2   4 2223.13   49.11
   2  -2   4 2466.82   51.58
   2   2   4 2185.26   51.11
   2  -2   4 2297.13   51.70
  -2  -2  -4 2228.21   49.09
   2  -2   4 2332.50   49.55
   2  -2   4 2374.78   51.11
   2  -2   5  346.01   11.27
   2   2   5  314.99    9.17
   2   2   5  313.24    9.18
   2  -2   5  355.14   11.13
  -2  -2  -5  327.89    9.31
   2  -2   5  358.72   10.77
   2   2   5  326.32   10.85
   2   2   6   71.35    3.63
   2  -2   6   63.49    4.00
   2   2   6   63.98    3.49
  -2  -2  -6   67.68    3.56
   2  -2   6   60.42    4.29
   2  -2   7  172.91    7.30
   2   2   7  151.59    6.22
   2   2   7  153.24    6.07
   2  -2   7  155.27    7.56
  -2  -2  -7  148.20    6.15
   2   2   8  783.82   21.17
   2  -2   8  832.16   23.53
   2  -2   8  805.81   22.52
   2  -2   9   58.61    4.93
   2  -2   9   49.32    4.22
   2   2   9   50.73    3.83
   2   2  10    2.67    1.36
   2  -2  10    2.54    1.48
   2  -2  11   14.12    2.59
   2   2  11   10.01    2.16
   2  -2  12  179.96    9.62
   2   2  12  155.90    8.47
   2   2  13    6.72    1.90
   2  -2  13    9.03    2.55
   2  -2  14   30.91    4.32
   2   2  14   19.55    3.27
   2   2  15    3.50    1.91
   2  -2  15    3.42    2.19
   2   2  16    7.65    2.46
  -2  -3  14   13.61    3.24
  -2  -3  13    2.18    1.56
  -2  -3  12   33.21    4.26
  -2  -3  11  130.21    8.09
  -2  -3  10   54.50    4.86
  -2  -3   9   27.50    3.27
  -2  -3   8   96.10    5.93
  -2  -3   7  198.22    8.41
  -2  -3   7  193.16    5.66
  -2  -3   6  119.71    5.89
  -2  -3   6  111.11    3.59
  -2  -3   5   83.77    2.81
  -2  -3   5  101.27    5.00
  -2   3   4  167.62    4.57
   2   3  -4  160.51    6.34
  -2  -3   4  169.07    6.45
  -2  -3   3  260.71    8.10
   2   3  -3  252.16    6.52
   2   3  -3  256.85    8.11
   2   3  -2  173.09    5.63
  -2  -3   2  158.75    5.46
   2  -3  -2  155.45    4.15
  -2  -3   1  234.59    6.70
  -2  -3   0  178.23    6.55
  -2  -3   0  163.84    4.88
  -2   3  -1  235.17    7.06
  -2  -3  -1  232.59    7.94
   2  -3   1  233.22    7.87
  -2  -3  -1  232.60    6.76
  -2  -3  -1  232.08    7.67
  -2   3  -1  228.26    6.77
   2  -3   2  111.29    5.15
   2   3   2  118.33    5.05
   2  -3   2  118.07    4.47
  -2   3  -2  115.04    4.19
  -2  -3  -2  111.72    4.95
  -2  -3  -2  118.63    5.24
   2   3   3  348.55   10.78
   2  -3   3  346.49   11.19
  -2  -3  -3  341.70    8.64
   2   3   3  339.07   10.62
   2   3   3  330.15    9.93
   2  -3   3  349.96   10.09
   2  -3   4   79.43    3.32
   2   3   4   88.64    4.68
   2  -3   4   80.43    4.21
   2   3   4   80.97    2.87
   2   3   4   82.04    4.52
   2   3   4   90.83    4.42
   2  -3   4   86.54    4.89
  -2  -3  -4   85.92    3.39
   2  -3   4   78.98    4.54
   2  -3   5  129.86    4.64
   2  -3   5  135.83    6.20
  -2  -3  -5  127.89    4.83
   2   3   5  131.65    4.29
   2  -3   5  130.64    6.03
   2  -3   5  124.26    6.48
   2   3   5  127.73    5.96
  -2  -3  -6   42.32    2.72
   2  -3   6   41.53    3.76
   2  -3   6   39.70    2.37
   2   3   6   39.09    2.59
   2   3   6   36.43    2.22
   2  -3   6   37.86    3.28
   2  -3   7  303.23   11.83
   2  -3   7  310.27   11.31
  -2  -3  -7  292.84    9.68
   2   3   7  302.29    9.75
   2  -3   8   29.10    3.61
   2  -3   8   22.23    2.85
   2   3   8   23.57    2.42
   2   3   9   51.45    3.89
   2  -3   9   57.67    5.12
   2  -3   9   55.51    4.64
   2   3  10    5.81    1.60
   2  -3  10   11.13    2.50
   2  -3  11  185.62   10.07
   2   3  11  202.87    9.20
   2  -3  12    4.07    1.85
   2   3  12    6.57    1.98
   2   3  13   15.04    2.82
   2  -3  13   13.14    2.86
   2  -3  14   -1.04    1.69
   2   3  14    3.32    2.21
   2  -3  15  104.46    8.55
   2   3  15   92.82    7.20
  -2  -4  14   -2.61    2.31
  -2  -4  13   -1.53    1.68
  -2  -4  12   79.13    6.77
  -2  -4  11    7.75    2.48
  -2  -4  10   24.13    3.43
  -2  -4   9   65.41    5.14
  -2  -4   9   56.21    2.11
  -2  -4   8  119.99    6.77
  -2   4   7  122.70    4.76
  -2  -4   7  112.26    6.26
  -2  -4   6  145.38    6.86
  -2   4   6  139.99    4.85
  -2  -4   5  223.20    8.67
  -2   4   5  239.66    6.64
  -2  -4   4  166.28    6.71
   2   4  -3  412.66    9.98
  -2  -4   3  419.96   12.04
  -2  -4   2  176.80    6.31
   2  -4  -2  180.26    5.28
  -2  -4   1  279.15    8.21
   2  -4   0  188.05    6.80
  -2   4   0  185.07    5.60
  -2  -4   0  194.76    7.47
  -2  -4  -1  349.70   10.56
  -2  -4  -1  360.69   11.20
  -2   4  -1  329.10    9.09
  -2  -4  -1  360.43    9.21
   2  -4   1  325.89   10.57
   2   4   2  177.00    7.11
  -2  -4  -2  174.19    7.02
  -2   4  -2  173.70    5.70
  -2  -4  -2  164.85    6.58
   2  -4   2  172.37    7.00
  -2  -4  -3  160.22    5.30
   2  -4   3  173.01    7.27
   2   4   3  169.40    6.83
   2  -4   3  169.37    6.11
   2   4   3  176.70    6.15
  -2   4  -3  165.46    5.42
   2   4   4  335.24   10.30
   2  -4   4  325.65   10.26
  -2  -4  -4  329.05    9.21
   2  -4   4  327.57   11.57
   2  -4   5   59.50    4.28
   2   4   5   68.15    4.09
   2  -4   5   61.16    3.94
  -2  -4  -5   62.41    3.23
   2  -4   5   61.02    4.52
   2  -4   6   95.67    3.75
   2  -4   6  100.18    5.78
  -2  -4  -6   97.35    4.50
   2  -4   6   96.67    6.00
   2  -4   7    7.47    1.04
   2  -4   7    8.00    1.90
  -2  -4  -7    8.71    1.44
   2  -4   7    7.13    2.22
   2  -4   8  293.79    8.58
   2  -4   8  298.65   12.54
   2  -4   8  285.46   11.63
   2  -4   9    5.64    2.18
   2  -4   9    3.68    1.77
   2  -4  10    7.85    2.11
   2  -4  11   17.91    3.06
   2  -4  12  177.43   10.37
   2  -4  13   89.30    7.26
   2  -4  14   -0.33    1.68
  -2  -5  13   -0.72    1.79
  -2  -5  12   17.59    3.36
  -2  -5  11   67.90    6.01
  -2  -5  10    9.78    2.54
  -2  -5   9    4.66    1.88
  -2  -5   8    8.72    1.94
  -2   5   7   76.43    3.64
  -2  -5   7   78.00    5.35
  -2  -5   6    2.50    1.14
  -2  -5   5   17.77    2.25
  -2   5   4    3.76    0.62
  -2  -5   4    1.59    0.81
  -2  -5   3   55.59    3.62
   2  -5  -3   57.67    2.72
   2  -5  -2    2.14    0.73
   2   5  -2    2.73    1.13
  -2  -5   2    1.74    0.88
   2   5  -1   36.38    2.66
  -2  -5   1   30.19    2.36
   2  -5  -1   29.18    2.31
  -2  -5   0    3.05    1.17
  -2  -5   0    5.16    1.35
  -2  -5   0    4.58    0.68
   2   5   0    5.85    1.14
  -2   5   0    3.63    0.67
   2  -5   0    4.77    1.24
   2  -5   1   15.15    1.91
  -2  -5  -1   14.14    2.09
  -2  -5  -1   16.31    1.98
   2   5   1   16.47    1.41
  -2   5  -2    2.73    0.76
  -2  -5  -2    1.83    0.88
   2  -5   2    4.28    1.35
   2   5   2    4.16    0.62
  -2  -5  -2    4.44    1.24
  -2   5  -3   29.36    2.00
  -2  -5  -3   30.65    3.06
   2  -5   3   36.77    3.32
   2   5   4   15.57    1.81
   2  -5   4   12.73    1.67
   2  -5   4   13.31    2.17
  -2  -5  -4   16.41    1.64
  -2  -5  -5    1.51    0.69
   2  -5   5    1.49    1.22
   2   5   5    1.32    0.98
   2  -5   5    0.89    0.70
   2  -5   5    1.92    1.37
  -2  -5  -6   12.97    1.60
   2  -5   6   10.02    2.06
   2  -5   6   14.06    2.59
   2  -5   7   16.05    2.65
   2  -5   7   26.77    3.55
   2  -5   8   34.22    4.21
   2  -5   8   35.91    3.95
   2  -5   9   11.87    2.58
   2  -5   9    9.80    2.70
   2  -5  10   32.92    4.16
   2  -5  11   19.48    3.73
   2  -5  12   33.94    4.47
   2  -5  13    9.66    3.01
  -2  -6  13   66.53    6.82
  -2  -6  12   29.28    4.42
  -2  -6  11  176.95   10.35
  -2  -6  10   52.93    5.36
  -2  -6   9  368.58   14.77
  -2  -6   8   48.51    4.65
  -2  -6   7  477.54   16.39
  -2  -6   6  175.91    8.37
  -2  -6   5  804.94   22.39
  -2   6   5  785.31   19.02
   2   6  -4   40.57    1.61
  -2  -6   4   58.24    4.07
   2  -6  -3  897.17   21.27
   2  -6  -3  858.02   21.05
  -2  -6   3  833.63   22.80
   2  -6  -2  238.36    7.95
   2  -6  -2  233.71    7.69
  -2  -6   2  216.48    8.35
  -2  -6   1 1118.33   28.23
   2   6  -1 1199.32   28.42
   2  -6  -1 1157.59   28.15
   2   6   0   41.79    2.78
  -2  -6   0   38.69    3.60
   2  -6   0   39.21    3.12
  -2  -6   0   34.15    2.94
   2   6   1  754.06   18.19
   2  -6   1  712.07   20.23
  -2  -6  -1  765.99   21.43
  -2  -6  -1  767.74   20.37
  -2  -6  -2  238.72    8.87
   2  -6   2  219.00    9.10
   2   6   2  239.79    6.48
  -2  -6  -2  226.24    9.45
  -2   6  -3  775.40   19.41
  -2  -6  -3  823.57   22.77
   2  -6   3  819.61   22.69
  -2   6  -4   67.72    3.12
   2  -6   4   64.76    3.60
  -2  -6  -4   67.55    3.73
   2  -6   4   65.74    4.85
  -2  -6  -5  367.67   11.09
   2  -6   5  359.33   11.31
   2  -6   5  351.28   13.52
   2   6   5  342.31   11.18
   2  -6   5  339.86   13.28
   2  -6   6  176.73    9.17
   2  -6   6  158.65    8.47
   2  -6   7  229.83   11.03
   2  -6   7  215.34   10.38
   2  -6   8   53.42    5.26
   2  -6   8   59.69    5.63
   2  -6   9   98.50    7.20
   2  -6  10   40.29    4.77
   2  -6  11   23.15    3.79
   2  -6  12   46.29    5.58
  -2  -7  12   58.19    6.31
  -2  -7  11   -0.18    1.72
  -2  -7  10   87.82    7.13
  -2  -7   9   32.60    4.19
  -2  -7   8  156.10    8.81
  -2  -7   7    2.68    1.46
  -2  -7   6  175.76    8.81
   2  -7  -5   46.25    2.52
  -2  -7   5   39.62    3.95
  -2  -7   4  266.15   10.01
   2  -7  -4  263.65    7.44
   2  -7  -3   15.17    1.79
  -2  -7   3   15.28    2.28
   2  -7  -3   17.93    1.78
   2  -7  -2  296.63    9.11
  -2  -7   2  261.90    9.68
   2  -7  -2  277.42    8.72
  -2  -7   1   22.32    2.51
  -2  -7   1   22.24    3.15
   2  -7  -1   26.73    2.55
  -2  -7   0  321.21   11.09
   2  -7   0  302.05   10.76
  -2  -7   0  331.54   12.54
   2   7   0  322.26   10.06
  -2  -7  -1   17.61    2.20
   2   7   1   22.04    1.87
   2  -7   1   15.66    2.26
  -2  -7  -1   18.36    2.61
  -2  -7  -2  279.88   11.14
   2  -7   2  258.18   10.41
  -2   7  -3    1.02    0.68
   2  -7   3    3.74    1.61
  -2  -7  -3    0.36    1.10
  -2   7  -4  242.75    7.49
   2  -7   4  240.93   10.71
   2  -7   5    7.59    2.09
   2  -7   5    8.40    2.13
   2  -7   6  156.16    8.82
   2  -7   6  151.32    8.83
   2  -7   7   10.97    2.56
   2  -7   7   16.42    3.18
   2  -7   8  115.11    8.12
   2  -7   8  125.11    8.15
   2  -7   9    1.20    1.87
   2  -7  10   64.68    6.15
   2  -7  11   39.41    5.08
  -2  -8  11    9.73    2.83
  -2  -8  10    2.99    2.09
  -2  -8   9   11.51    2.81
  -2  -8   8  227.92   11.49
  -2  -8   7    1.83    1.67
  -2  -8   6    3.47    1.44
  -2  -8   5    0.24    1.15
  -2  -8   4  432.80   15.14
  -2  -8   3    4.56    1.63
   2  -8  -3    2.83    0.98
   2  -8  -3    4.79    1.28
  -2  -8   2   16.25    2.41
   2  -8  -2   16.34    2.01
   2  -8  -2   15.69    2.07
   2  -8  -1    3.06    1.40
  -2  -8   1    3.09    1.84
  -2  -8   1    0.33    1.01
  -2  -8   1    1.63    1.10
   2  -8  -1    1.40    0.93
  -2  -8   0  516.80   17.56
  -2  -8   0  508.18   15.75
   2  -8   0  483.78   15.40
  -2  -8  -1    9.91    2.32
   2  -8   1    7.74    1.76
  -2  -8  -1    9.43    1.78
  -2  -8  -2   12.04    2.36
   2  -8   2   11.69    2.22
  -2   8  -3   15.84    1.79
  -2  -8  -3   16.16    2.71
   2  -8   3   18.64    3.03
   2  -8   4  290.79   12.37
   2  -8   5   10.95    2.75
   2  -8   5    1.12    1.33
   2  -8   6    2.41    1.95
   2  -8   6    3.11    1.26
   2  -8   7   23.52    3.60
   2  -8   8   82.12    6.89
   2  -8   9   42.85    5.19
   2  -8  10   12.54    3.21
  -2  -9  10   21.03    3.85
  -2  -9   9    1.67    1.47
  -2  -9   8   32.00    4.25
  -2  -9   7   47.73    5.01
  -2  -9   6   22.03    3.38
  -2  -9   5   24.96    3.41
  -2  -9   4   22.61    3.30
   2  -9  -3   62.04    4.27
  -2  -9   3   65.65    5.10
   2  -9  -2   19.07    2.43
  -2  -9   2   20.70    3.55
  -2  -9   2   19.29    2.81
   2  -9  -1   48.62    3.81
  -2  -9   1   49.76    5.04
  -2  -9   1   52.88    4.25
   2  -9  -1   56.25    4.34
  -2  -9   1   44.97    4.02
   2  -9   0   20.89    2.70
  -2  -9   0   23.87    3.52
  -2  -9   0   18.74    2.61
  -2  -9   0   24.88    2.90
  -2  -9  -1   36.05    3.42
  -2  -9  -1   32.53    3.97
   2  -9   1   32.60    3.43
   2  -9   2   17.21    2.77
  -2  -9  -2   10.93    2.46
   2  -9   3   34.81    4.00
  -2  -9  -3   33.39    3.99
   2  -9   4   11.28    2.65
   2  -9   4   19.69    3.20
   2  -9   5    4.73    2.08
   2  -9   6   10.67    2.85
   2  -9   7    4.78    2.26
   2  -9   8   12.47    3.09
   2  -9   9   18.07    3.78
  -2 -10   9   17.35    3.59
  -2 -10   8   14.58    3.23
  -2 -10   7   23.80    3.70
  -2 -10   6  316.59   14.03
  -2 -10   5   25.80    3.74
  -2 -10   4   56.79    5.32
  -2 -10   3   31.37    4.55
  -2 -10   3   28.97    3.62
  -2 -10   2  448.73   16.44
  -2 -10   2  490.56   18.96
  -2 -10   1   28.67    4.18
  -2 -10   1   22.25    3.14
   2 -10   0   59.65    4.97
  -2 -10   0   47.83    4.40
  -2 -10   0   56.36    5.58
  -2 -10  -1   23.96    3.72
  -2 -10  -2  383.49   15.77
  -2 -10  -3   19.48    3.31
   2 -10   4   30.11    4.34
   2 -10   5   12.91    3.26
   2 -10   6  134.32    9.47
   2 -10   7    6.97    2.42
  -2 -11   7   60.71    6.34
  -2 -11   6    0.75    1.97
  -2 -11   5  113.80    8.10
  -2 -11   4    0.27    1.38
  -2 -11   4    1.51    1.69
  -2 -11   3  113.44    7.76
  -2 -11   3  114.42    8.83
  -2 -11   2    2.24    2.03
  -2 -11   2    3.97    1.68
  -2 -11   1  147.10    9.86
  -2 -11   0   -0.30    1.83
  -2 -11  -1  154.46    9.79
  -2 -11  -2    4.22    2.10
  -2 -11  -3   80.34    6.94
   2 -11   4   11.18    3.38
   2 -11   5   94.55    8.10
  -2 -12   2    7.13    2.55
  -2 -12   1   46.17    5.69
  -2 -12   0   38.15    5.15
  -2 -12  -1   95.91    8.05
  -2 -12  -2   11.50    3.10
  -3   0  15   89.09    7.73
  -3   0  14   -1.50    1.63
  -3   0  13    7.78    2.38
  -3   0  12    2.96    1.90
  -3   0  11  133.43    7.98
  -3   0  10    1.17    1.02
  -3   0   9   16.84    2.59
  -3   0   8    0.16    0.99
  -3   0   7  135.53    6.60
  -3   0   6   -0.13    0.85
  -3   0   5   34.42    2.84
  -3   0   4   -0.56    0.77
  -3   0   3   90.62    4.08
   3   0  -2    0.37    0.57
  -3   0   2   -0.17    0.55
  -3   0   2    0.46    0.51
   3   0  -1   64.80    2.88
  -3   0   1   66.60    3.13
   3   0  -1   65.27    2.88
  -3   0   1   67.64    2.91
  -3   0   0    1.87    0.81
  -3   0   0    2.02    0.76
   3   0   0    1.78    0.65
  -3   0  -1   41.07    2.55
  -3   0  -2    0.17    0.75
  -3   0  -3  127.53    5.59
   3   0   3  127.86    4.39
   3   0   4    0.60    0.66
   3   0   4   -0.21    1.02
   3   0   5   26.74    2.48
   3   0   5   25.54    2.05
   3   0   6    0.99    0.78
   3   0   6    1.41    1.06
   3   0   7  164.82    7.42
   3   0   7  173.43    6.94
   3   0   8    0.27    0.91
   3   0   8    1.25    1.12
   3   0   9   20.44    2.84
   3   0   9   19.45    2.49
   3   0  10    2.41    1.87
   3   0  10    1.10    1.06
   3   0  11  187.22    8.99
   3   0  12    2.91    1.54
   3   0  13   18.48    3.03
   3   0  14    5.77    1.94
   3   0  15  137.06    9.09
   3   0  16   -1.34    2.19
  -3   1  15  175.80   11.25
  -3  -1  15  186.85   11.53
  -3  -1  14   17.39    3.56
  -3   1  14   13.81    3.33
  -3  -1  13  231.90   12.16
  -3   1  13  262.44   12.82
  -3  -1  12  105.93    7.45
  -3   1  12   98.02    7.13
  -3   1  11  236.71   11.26
  -3  -1  11  234.72   11.12
  -3  -1  10   30.27    3.58
  -3   1  10   32.15    3.86
  -3   1   9  303.13   12.10
  -3  -1   9  316.17   12.19
  -3  -1   8  374.08   13.23
  -3   1   8  384.22   13.38
  -3   1   7  118.35    6.22
  -3  -1   7  114.92    6.07
  -3  -1   6   87.34    4.90
  -3   1   6   90.15    5.03
  -3   1   5   97.20    4.97
  -3  -1   5   92.50    4.71
  -3  -1   4 1200.84   28.38
  -3  -1   4 1169.35   27.55
   3   1  -4 1211.32   28.37
  -3   1   3    2.78    0.55
  -3  -1   3    2.69    0.90
   3   1  -3    2.17    0.80
  -3  -1   3    1.96    0.68
   3   1  -2   58.99    2.90
  -3   1   2   58.88    2.18
  -3  -1   2   56.11    2.74
  -3  -1   2   54.58    2.77
   3   1  -2   62.02    2.81
  -3  -1   2   56.14    3.03
  -3   1   1   53.68    2.88
   3   1  -1   57.31    2.37
   3  -1  -1   50.83    2.16
  -3  -1   1   54.32    2.39
  -3  -1   1   55.67    2.93
   3   1   0 1530.94   32.63
  -3  -1   0 1481.13   34.62
  -3  -1   0 1525.00   34.54
  -3   1   0 1511.68   34.30
  -3   1   0 1510.88   33.76
  -3  -1  -1  256.15    8.29
  -3   1  -1  260.20    7.84
   3  -1   1  264.24    7.73
  -3  -1  -2    4.10    1.08
  -3   1  -2    3.90    0.97
   3   1   2    5.68    0.55
  -3  -1  -3  295.14    9.61
  -3   1  -3  300.51    9.66
   3   1   3  295.71    7.51
   3   1   4 1562.90   33.93
   3  -1   4 1518.76   35.16
   3  -1   4 1484.42   36.28
   3  -1   5  427.03   12.44
   3   1   5  440.53   11.59
   3  -1   5  411.48   13.38
  -3  -1  -5  452.60   11.78
   3   1   5  429.78   12.59
   3   1   6   13.71    1.93
   3  -1   6   12.28    2.01
   3   1   6   11.23    1.48
  -3  -1  -6   14.24    1.62
   3  -1   6   14.07    1.82
   3  -1   7  459.33   14.98
   3   1   7  482.21   13.61
   3   1   7  472.43   14.14
   3  -1   7  471.23   14.18
  -3  -1  -7  456.07   13.48
   3   1   8  793.11   21.71
   3  -1   8  781.54   22.74
   3  -1   8  799.06   21.90
   3   1   8  789.70   21.01
   3  -1   9  279.84   11.65
   3   1   9  302.65   10.63
   3   1   9  292.81   11.04
   3  -1   9  279.33   10.85
   3   1  10   42.03    3.74
   3   1  10   37.10    3.72
   3  -1  10   53.47    4.87
   3  -1  10   49.38    4.17
   3  -1  11  229.60   10.47
   3   1  11  237.41   10.11
   3  -1  11  233.25   11.16
   3   1  12  316.85   12.81
   3  -1  12  331.90   13.57
   3   1  13  139.65    8.21
   3  -1  13  143.68    8.73
   3   1  14   24.60    3.57
   3  -1  14   27.92    4.12
   3   1  15   57.99    5.71
   3  -1  15   57.73    6.01
  -3  -2  15   66.55    6.86
  -3   2  15   81.33    7.37
  -3   2  14   22.10    3.84
  -3  -2  14   14.96    3.37
  -3   2  13    7.72    2.54
  -3  -2  13    6.27    2.46
  -3   2  12   35.23    4.34
  -3  -2  12   35.83    4.34
  -3  -2  11  124.80    7.84
  -3   2  11  125.00    7.83
  -3   2  10   37.63    4.05
  -3  -2  10   41.09    4.17
  -3  -2   9   30.12    3.51
  -3   2   9   33.50    3.64
  -3  -2   8   48.88    4.20
  -3   2   8   68.09    4.89
  -3  -2   7  234.33    9.31
  -3  -2   6   65.07    4.17
  -3  -2   6   60.06    3.16
  -3  -2   5  149.27    6.20
  -3  -2   5  136.10    4.93
  -3  -2   4   72.13    3.27
  -3  -2   4   82.91    4.05
   3   2  -4   79.74    4.02
  -3  -2   3  327.07    9.00
  -3  -2   3  329.30    9.57
   3   2  -3  339.69    9.62
   3   2  -2   68.85    3.10
   3   2  -2   70.87    3.06
  -3  -2   2   71.22    3.13
   3   2  -1  344.69    9.51
   3   2  -1  342.40    8.67
  -3  -2   1  335.44   10.39
  -3  -2   1  351.38    8.76
  -3   2   1  343.08    8.73
  -3  -2   0   62.52    2.10
   3   2   0   65.74    2.07
  -3   2   0   66.48    3.47
  -3  -2   0   64.28    3.57
  -3  -2   0   67.47    3.65
  -3   2  -1  302.06    8.95
  -3   2  -1  293.66    9.02
  -3  -2  -1  303.10    9.58
   3  -2   1  300.72    8.30
  -3  -2  -1  306.81    9.09
  -3  -2  -1  300.66    9.60
  -3   2  -2   39.59    2.48
   3  -2   2   41.02    2.60
  -3  -2  -2   42.50    2.98
  -3  -2  -2   38.14    2.68
  -3   2  -2   41.63    2.78
   3   2   3  413.09    9.49
   3  -2   3  422.00   12.32
   3  -2   3  423.07   11.47
  -3   2  -3  394.74   12.12
   3  -2   3  401.18   12.65
   3   2   3  403.15   12.18
  -3  -2  -3  422.01   12.26
   3  -2   4   29.89    2.22
   3  -2   4   33.42    2.84
   3   2   4   32.87    1.72
   3  -2   4   32.03    3.11
   3   2   4   30.82    2.75
   3  -2   4   30.19    2.56
  -3  -2  -4   28.41    1.60
   3   2   5  138.38    4.80
   3  -2   5  143.83    6.84
   3  -2   5  135.75    5.46
   3   2   5  147.29    5.57
  -3  -2  -5  136.69    4.78
   3  -2   5  135.46    6.02
   3   2   6   12.00    1.39
   3  -2   6   11.96    1.85
  -3  -2  -6   12.47    1.46
   3  -2   6   14.08    2.22
   3   2   6   13.07    1.54
   3   2   7  301.88    9.46
  -3  -2  -7  297.00    9.49
   3  -2   7  294.53   10.84
   3   2   7  315.70   10.00
   3  -2   7  269.10   11.13
   3   2   8    5.08    1.30
   3   2   8    6.23    1.27
   3  -2   8    6.24    2.06
   3  -2   8    8.20    1.77
   3   2   9   34.68    3.03
   3   2   9   36.12    3.13
   3  -2   9   37.57    4.09
   3  -2   9   28.49    3.43
   3  -2  10    1.92    1.26
   3   2  10    3.81    1.31
   3  -2  10   -1.06    1.41
   3   2  11  146.98    7.58
   3  -2  11  152.68    9.17
   3  -2  11  156.06    8.58
   3  -2  12    0.15    1.32
   3   2  12    1.17    1.35
   3   2  13    3.69    1.57
   3  -2  13    3.35    1.80
   3   2  14   -1.06    1.48
   3  -2  14   -0.29    1.62
   3  -2  15   59.99    6.28
  -3  -3  14  100.80    8.10
  -3  -3  13   11.16    2.85
  -3  -3  12  647.02   22.35
  -3  -3  11   35.38    4.23
  -3  -3  10   81.19    6.06
  -3  -3   9    4.55    1.97
  -3  -3   9    4.28    1.04
  -3  -3   8  866.26   20.82
  -3  -3   8  893.68   24.80
  -3  -3   7   10.87    1.21
  -3  -3   7   15.42    2.22
  -3  -3   6    9.67    1.65
  -3  -3   6    8.66    1.00
  -3  -3   5   46.05    3.36
  -3  -3   5   41.56    2.21
   3   3  -4  724.98   18.81
  -3  -3   4  723.23   18.84
  -3  -3   3   91.94    4.12
   3   3  -3   82.47    3.41
   3   3  -3   87.12    4.03
  -3  -3   2  113.16    4.28
   3   3  -2  109.06    4.17
   3   3  -2  114.40    4.31
  -3  -3   1  175.51    5.35
  -3  -3   1  183.22    7.15
  -3  -3   0  353.77    8.62
  -3  -3   0  362.00   11.09
  -3  -3   0  363.53   11.34
  -3   3  -1  299.19    9.07
  -3  -3  -1  300.21   10.00
  -3   3  -1  305.51    9.18
   3  -3   1  308.41    8.08
  -3  -3  -1  282.30    8.92
  -3  -3  -1  300.07    9.85
  -3  -3  -2  436.00   12.39
  -3  -3  -2  426.76   13.28
   3  -3   2  457.66   13.47
  -3   3  -2  454.16   12.53
  -3  -3  -2  411.50   13.00
  -3   3  -2  448.90   12.11
   3  -3   3  445.33   11.55
   3  -3   3  447.26   13.35
   3   3   3  394.11   11.99
  -3  -3  -3  391.82    9.31
   3  -3   3  443.21   12.38
  -3  -3  -4   40.62    1.88
   3  -3   4   43.96    3.23
   3  -3   4   42.47    3.56
   3  -3   4   44.44    2.70
   3   3   4   41.27    3.12
   3  -3   5  446.00   14.61
   3   3   5  430.26   11.83
  -3  -3  -5  439.69   11.38
   3  -3   5  469.22   12.50
   3  -3   5  488.58   14.38
   3   3   6  398.91   11.17
   3  -3   6  421.63   11.81
   3   3   6  396.09   11.19
  -3  -3  -6  397.87   11.09
   3  -3   6  440.87   14.40
   3  -3   6  428.50   13.58
   3  -3   7  299.99   11.01
   3   3   7  268.54    8.77
   3  -3   7  287.65   11.57
  -3  -3  -7  270.40    8.81
   3   3   7  276.82    8.94
   3  -3   7  287.47    9.11
   3   3   8    2.53    1.02
   3   3   8    2.05    1.05
   3  -3   8    3.01    1.85
   3  -3   8    3.47    1.58
   3  -3   9  348.67   14.07
   3  -3   9  349.52   13.16
   3   3   9  336.63   11.41
   3   3  10  258.65   10.17
   3  -3  10  290.24   12.93
   3  -3  10  275.89   11.88
   3  -3  11  167.19    9.95
   3  -3  11  168.45    9.24
   3   3  11  158.60    7.85
   3   3  12    2.93    1.48
   3  -3  12    1.21    1.54
   3  -3  13  107.16    7.88
   3   3  13   97.75    6.64
   3  -3  14   87.06    7.41
  -3  -4  14    7.06    2.57
  -3  -4  13   21.27    3.88
  -3  -4  12   13.55    2.93
  -3  -4  11  143.85    8.88
  -3  -4  10   12.18    2.66
  -3  -4   9   23.93    1.55
  -3  -4   9   25.99    3.39
  -3   4   8   17.23    1.55
  -3  -4   8   23.27    3.04
  -3  -4   7  130.05    6.82
  -3   4   7  120.78    4.08
  -3  -4   6   16.60    2.26
  -3  -4   5   29.88    2.78
  -3  -4   4   24.22    2.29
   3   4  -3   54.90    3.30
   3   4  -3   54.91    2.64
  -3  -4   3   58.72    3.37
  -3  -4   2   20.27    1.80
  -3  -4   1   24.24    1.72
  -3  -4   1   21.68    2.51
  -3  -4   0   33.38    2.83
  -3  -4   0   30.54    1.74
  -3  -4   0   33.53    3.10
  -3  -4  -1    4.50    0.62
  -3  -4  -1    3.59    1.29
  -3   4  -1    3.13    1.01
  -3   4  -1    4.57    0.99
  -3  -4  -1    5.28    1.01
  -3  -4  -1    6.19    1.40
  -3   4  -2   29.98    2.34
  -3   4  -2   28.46    2.39
  -3  -4  -2   24.37    2.62
  -3  -4  -2   28.14    2.71
   3  -4   2   30.34    2.94
  -3  -4  -2   27.86    2.31
  -3   4  -3   18.08    1.76
   3  -4   3   21.29    2.69
  -3  -4  -3   17.39    1.11
   3  -4   4   45.66    3.88
  -3  -4  -4   45.35    2.12
   3  -4   4   45.43    3.29
   3   4   4   37.38    3.11
   3  -4   5    7.55    1.69
   3   4   5    7.36    0.89
  -3  -4  -5    6.79    0.95
   3  -4   5    5.57    1.76
   3  -4   6   47.05    3.98
   3   4   6   41.73    2.23
   3  -4   6   41.78    2.78
   3  -4   6   42.95    4.17
  -3  -4  -6   43.26    2.59
   3  -4   7   25.01    2.12
   3   4   7   23.82    1.79
  -3  -4  -7   19.59    1.95
   3  -4   7   27.30    3.36
   3  -4   7   20.67    3.18
  -3  -4  -8   54.46    3.56
   3  -4   8   55.42    3.33
   3  -4   8   51.60    4.62
   3  -4   8   58.22    5.13
   3  -4   9   12.54    2.98
   3  -4   9   11.07    2.33
   3  -4  10   58.71    5.75
   3  -4  10   53.69    5.12
   3  -4  11   34.49    4.32
   3  -4  11   32.21    4.62
   3  -4  12   56.71    5.76
   3  -4  13    3.68    2.15
   3  -4  14   41.81    5.49
  -3  -5  13   39.19    4.97
  -3  -5  12    6.78    2.74
  -3  -5  11   18.74    3.35
  -3  -5  10  290.62   12.94
  -3  -5   9   61.15    5.22
  -3  -5   8   13.66    2.30
  -3  -5   7   39.46    3.75
  -3  -5   6  118.13    6.35
  -3  -5   5   70.21    4.53
   3   5  -4  216.04    6.21
  -3  -5   4  220.17    8.41
   3   5  -3   65.53    2.99
   3  -5  -3   62.56    2.39
  -3  -5   3   70.72    3.97
  -3  -5   2    9.77    1.40
  -3  -5   1   46.04    3.87
  -3  -5   1   48.41    2.84
   3  -5   0  836.51   22.46
  -3   5   0  816.65   20.62
  -3  -5   0  866.14   23.56
  -3  -5   0  846.59   20.28
  -3  -5   0  911.55   23.06
  -3  -5   0  883.73   20.76
  -3   5  -1   95.10    4.72
  -3   5  -1   95.00    4.19
  -3  -5  -1  103.56    4.29
   3  -5   1   97.90    5.33
  -3  -5  -1  101.41    5.39
  -3  -5  -1  100.50    5.75
  -3  -5  -1   93.57    3.71
  -3   5  -2   75.87    3.94
  -3  -5  -2   69.68    4.82
   3  -5   2   80.36    5.04
  -3  -5  -2   79.18    4.77
  -3   5  -3   36.31    2.56
   3  -5   3   35.30    3.41
  -3  -5  -3   30.41    1.84
  -3  -5  -4 1002.85   23.11
   3   5   4  997.92   21.92
   3  -5   4 1028.83   27.52
   3  -5   5   93.19    5.92
   3  -5   5   95.26    6.22
  -3  -5  -5   97.62    3.97
  -3  -5  -6  233.98    7.59
   3  -5   6  231.63   10.67
   3  -5   6  241.81   10.39
   3  -5   7   29.50    3.64
  -3  -5  -7   27.36    2.32
   3  -5   7   33.14    3.97
   3  -5   8  861.76   26.61
   3  -5   8  851.15   25.54
   3  -5   9   59.88    5.82
   3  -5   9   66.88    5.60
   3  -5  10  151.74    9.71
   3  -5  10  145.98    8.89
   3  -5  11   28.09    4.05
   3  -5  11   31.60    4.73
   3  -5  12  492.13   19.45
   3  -5  13   39.63    5.37
  -3  -6  13   39.89    5.44
  -3  -6  12   29.60    4.29
  -3  -6  11    1.01    1.88
  -3  -6  10   31.13    4.08
  -3  -6   9   23.51    3.44
  -3  -6   8   76.10    5.74
  -3  -6   7    1.27    1.18
  -3  -6   6   92.94    5.85
  -3  -6   5    1.77    0.99
  -3   6   5    2.15    0.54
   3   6  -4  144.48    4.69
  -3  -6   4  155.76    6.99
   3  -6  -3   10.53    1.14
  -3  -6   3   12.24    1.89
  -3  -6   2  172.27    6.98
   3  -6  -2  185.49    6.13
  -3  -6   1   21.67    2.10
   3   6  -1   19.89    2.23
  -3  -6   1   23.86    3.06
   3  -6  -1   20.85    2.37
   3   6   0  239.26    7.99
   3  -6   0  240.13    9.13
  -3   6   0  220.90    7.00
  -3  -6   0  229.98    7.07
  -3  -6   0  212.73    7.51
  -3  -6   0  236.97    9.26
  -3  -6   0  238.96   10.03
  -3  -6  -1   27.22    2.08
   3  -6   1   31.44    3.20
  -3  -6  -1   24.97    3.03
   3   6   1   32.20    2.22
   3  -6   1   20.47    1.12
  -3  -6  -1   32.06    2.19
  -3  -6  -1   29.24    2.95
  -3   6  -2  203.08    7.64
   3   6   2  224.23    6.59
  -3  -6  -2  222.06    9.63
   3  -6   2  195.23    8.78
  -3  -6  -2  222.47    9.02
  -3   6  -3   91.46    4.46
   3  -6   3   93.29    5.87
   3   6   3   93.03    3.06
  -3  -6  -3  104.28    6.27
  -3  -6  -4  188.24    6.36
   3  -6   4  205.39    9.39
  -3   6  -4  185.45    6.70
  -3  -6  -5   31.50    2.31
   3  -6   5   32.98    3.74
   3  -6   5   32.75    3.76
   3  -6   6  140.09    8.29
   3  -6   6  142.06    8.07
   3  -6   7  136.76    8.41
   3  -6   7  121.21    7.64
   3  -6   8  119.99    8.16
   3  -6   8  112.01    7.46
   3  -6   9   24.42    3.78
   3  -6   9   20.39    3.77
   3  -6  10   52.32    5.87
   3  -6  10   56.85    5.71
   3  -6  11   99.91    7.82
   3  -6  12   38.96    5.07
  -3  -7  12  184.37   11.36
  -3  -7  11  152.90    9.90
  -3  -7  10    0.72    1.60
  -3  -7   9  121.22    8.03
  -3  -7   8  194.25    9.99
  -3  -7   7  174.08    9.05
  -3  -7   6   12.18    2.32
  -3  -7   5  122.06    6.80
  -3  -7   4   83.38    5.24
   3  -7  -4   88.25    4.52
   3  -7  -3   87.65    3.94
  -3  -7   3   84.68    5.07
   3  -7  -3   91.35    4.83
   3  -7  -2  133.16    5.46
  -3  -7   2  148.14    8.27
  -3  -7   2  122.94    6.06
   3  -7  -2  134.45    6.25
  -3  -7   1   45.85    4.44
  -3  -7   1   36.82    2.16
  -3   7   1   36.72    2.13
  -3  -7   1   37.00    2.98
   3  -7  -1   38.36    3.37
  -3  -7   1   51.04    4.07
  -3  -7   0   11.29    2.32
   3   7   0    8.66    1.43
  -3  -7   0    9.01    1.75
  -3  -7   0    7.74    1.35
   3  -7   0   13.39    2.18
  -3  -7  -1   52.54    3.32
  -3  -7  -1   45.11    4.27
  -3  -7  -1   50.15    4.03
   3  -7   1   46.61    4.01
   3   7   1   47.99    2.92
  -3  -7  -2  332.83   12.12
  -3   7  -2  316.60   10.67
   3  -7   2  334.19   12.46
   3   7   2  328.27    8.95
  -3  -7  -2  319.99   12.81
  -3   7  -3    4.09    1.17
   3  -7   3    1.88    1.27
  -3  -7  -3    1.75    1.25
  -3   7  -4    6.04    1.22
   3  -7   4    7.51    2.02
   3  -7   5    9.56    2.31
   3  -7   5    8.54    2.04
   3  -7   6  334.38   14.15
   3  -7   6  319.21   13.76
   3  -7   7    4.11    1.70
   3  -7   7    3.53    2.03
   3  -7   8    9.46    2.79
   3  -7   8    9.78    2.50
   3  -7   9    4.91    2.16
   3  -7   9    3.89    2.62
   3  -7  10  227.13   12.26
   3  -7  11    5.87    2.44
  -3  -8  11   34.43    4.80
  -3  -8  10   87.13    7.26
  -3  -8   9    0.92    1.57
  -3  -8   8   95.89    7.10
  -3  -8   7   23.08    3.32
  -3  -8   6   55.24    4.83
  -3  -8   5    1.30    1.36
   3  -8  -4   55.77    3.60
  -3  -8   4   55.41    4.57
   3  -8  -3    4.01    0.99
   3  -8  -3    5.72    1.34
  -3  -8   3    7.41    1.70
  -3  -8   2   23.60    3.51
  -3  -8   2   21.64    2.66
   3  -8  -2   23.03    2.36
   3  -8  -2   21.55    2.44
  -3  -8   1    0.10    1.27
  -3  -8   1    0.52    1.18
   3  -8  -1    1.45    1.18
  -3  -8   1   -0.24    0.77
  -3  -8   0   11.65    1.83
  -3  -8   0   12.17    2.82
   3  -8   0   19.14    2.56
  -3  -8   0    9.87    1.99
  -3  -8  -1    1.29    1.29
  -3  -8  -1    5.45    1.48
   3  -8   1    1.84    1.52
  -3  -8  -1    5.36    1.62
  -3   8  -2    2.63    1.16
  -3  -8  -2    4.65    2.01
   3  -8   2    3.88    1.38
  -3   8  -3    0.24    0.75
   3  -8   3    0.73    1.22
  -3  -8  -3    1.86    1.32
   3  -8   4    0.38    1.51
   3  -8   5   22.29    3.49
   3  -8   5   23.13    3.61
   3  -8   6    0.83    1.39
   3  -8   6    2.28    1.95
   3  -8   7    1.47    1.39
   3  -8   7    2.50    1.98
   3  -8   8   -0.50    1.71
   3  -8   8    5.62    2.78
   3  -8   9   38.06    5.05
   3  -8   9   34.65    5.01
   3  -8  10   -0.18    1.66
  -3  -9  10   52.35    5.89
  -3  -9   9    5.16    2.29
  -3  -9   8    5.47    2.18
  -3  -9   7    9.02    2.44
  -3  -9   6   57.34    5.31
  -3  -9   5   13.97    2.64
  -3  -9   4   28.40    3.38
  -3  -9   3   50.09    5.68
  -3  -9   3   54.73    4.54
  -3  -9   2   35.87    3.86
  -3  -9   2   36.88    3.59
  -3  -9   2   39.20    4.73
  -3  -9   1  103.73    7.54
   3  -9  -1   97.67    5.79
  -3  -9   1   84.15    5.41
   3  -9  -1  103.73    5.73
  -3  -9   1  102.84    6.52
  -3  -9   0   55.97    5.45
   3  -9   0   58.18    4.62
  -3  -9   0   49.25    3.93
  -3  -9   0   55.26    4.66
   3  -9   1  210.07    9.66
  -3  -9  -1  208.14    9.50
  -3  -9  -1  207.31   10.81
  -3  -9  -1  188.57    8.18
   3  -9   2   20.67    3.06
  -3   9  -2   24.26    2.69
  -3  -9  -2   22.48    3.45
   3  -9   3  181.22    9.70
  -3  -9  -3  192.67   10.44
   3  -9   4   98.55    7.23
   3  -9   5  275.77   13.56
   3  -9   5  290.99   13.53
   3  -9   6   18.32    3.66
   3  -9   6   37.13    4.87
   3  -9   7  229.11   12.66
   3  -9   7  252.21   13.08
   3  -9   8   51.19    5.72
  -3 -10   9   23.73    4.03
  -3 -10   8   -1.51    1.87
  -3 -10   7    7.39    2.41
  -3 -10   6    4.17    1.74
  -3 -10   5   31.57    3.94
  -3 -10   4   26.88    3.59
  -3 -10   4   34.00    4.91
  -3 -10   3   17.96    2.93
  -3 -10   3   22.59    3.95
  -3 -10   3   19.67    3.23
  -3 -10   2   43.40    5.23
  -3 -10   2   40.93    4.05
  -3 -10   2   46.92    4.62
  -3 -10   1   26.23    4.10
  -3 -10   1   30.19    3.63
  -3 -10   0  104.62    6.66
  -3 -10   0  109.10    8.11
   3 -10   1   39.79    4.15
  -3 -10  -1   37.35    4.74
   3 -10   2  124.51    7.81
  -3 -10  -2  109.75    8.07
  -3 -10  -3   16.56    3.44
   3 -10   3   19.40    3.42
   3 -10   4  148.53    9.26
   3 -10   5   32.77    4.51
   3 -10   5   30.94    4.63
   3 -10   6  129.15    9.35
  -3 -11   7   35.89    4.92
  -3 -11   6   78.48    6.79
  -3 -11   4    3.08    2.53
  -3 -11   3   14.05    3.56
  -3 -11   2   77.04    7.25
  -3 -11   1    4.43    2.40
  -3 -11   0    2.57    2.10
  -3 -11  -1    2.49    1.49
  -3 -11  -2   60.96    6.25
  -3 -11  -3    4.10    2.39
  -3 -12   0    5.34    2.58
  -3 -12  -1    1.80    1.87
  -3 -12  -2    3.06    2.38
  -4   0  14   29.58    4.46
  -4   0  13   -0.25    1.50
  -4   0  12  765.54   25.11
  -4   0  11    4.94    1.99
  -4   0  10  211.87   10.26
  -4   0   9    2.29    1.40
  -4   0   8 1948.50   47.44
  -4   0   7    0.92    1.20
  -4   0   6  863.79   23.25
  -4   0   5   -0.03    0.98
  -4   0   4 2619.56   58.74
   4   0  -4 2639.86   58.94
  -4   0   4 2631.08   58.92
  -4   0   3    0.81    1.09
   4   0  -3    0.46    0.78
  -4   0   3    0.54    0.80
   4   0  -2 1055.43   25.24
  -4   0   2 1072.23   24.87
  -4   0   1   17.41    2.34
   4   0  -1   25.73    2.08
  -4   0   1   28.91    2.28
   4   0  -1   15.91    2.05
  -4   0   0 2999.30   65.89
  -4   0   0 2947.87   66.12
   4   0   0 3059.25   65.73
   4   0   1    2.14    1.11
  -4   0  -1    6.06    1.22
  -4   0  -2  579.91   16.21
  -4   0  -3    2.66    1.20
   4   0   4 1220.68   28.13
  -4   0  -4 1206.00   30.54
   4   0   5    1.02    0.73
   4   0   5    0.19    0.87
   4   0   6  102.92    5.62
   4   0   6   98.58    4.68
   4   0   7    0.50    0.84
   4   0   7   -0.13    0.80
   4   0   8  387.62   13.72
   4   0   8  401.53   12.79
   4   0   9   -0.14    0.81
   4   0   9    1.07    1.27
   4   0  10   19.04    3.10
   4   0  10   18.44    2.51
   4   0  11   -0.67    1.02
   4   0  11   -1.39    1.25
   4   0  12   73.22    5.74
   4   0  12   84.31    6.55
   4   0  13    0.94    1.73
   4   0  14   49.77    5.10
   4   0  15    2.69    2.23
  -4  -1  14   12.54    3.20
  -4   1  14   15.80    3.53
  -4   1  13   12.77    3.03
  -4  -1  13   12.67    3.04
  -4   1  12   16.31    3.31
  -4  -1  12   21.78    3.62
  -4  -1  11  147.74    8.68
  -4   1  11  142.47    8.57
  -4  -1  10   21.69    3.05
  -4   1  10   19.07    3.03
  -4   1   9   36.52    3.80
  -4  -1   9   34.92    3.67
  -4   1   8   25.10    3.11
  -4  -1   8   22.11    2.82
  -4  -1   7  226.64    9.29
  -4   1   7  226.73    9.52
  -4  -1   6   10.89    1.74
  -4   1   6   14.58    2.08
  -4  -1   5  129.06    5.82
  -4  -1   5  114.89    5.17
  -4  -1   4    8.88    1.49
  -4  -1   4    9.33    1.44
  -4   1   4   11.14    1.23
   4   1  -4    9.86    1.56
  -4  -1   3  254.85    8.38
   4   1  -3  266.23    8.32
  -4  -1   3  249.84    8.48
  -4   1   3  263.23    7.19
   4  -1  -3  259.97    8.87
  -4  -1   3  268.80    8.46
  -4  -1   2    0.36    0.64
  -4   1   2    1.45    0.95
   4   1  -2    1.24    0.79
   4   1  -2    1.46    0.62
  -4  -1   2    0.56    0.54
  -4  -1   2    0.55    0.86
   4   1  -1  270.46    7.35
  -4   1   1  260.37    8.52
  -4  -1   1  257.87    8.42
   4   1  -1  251.00    8.40
   4  -1  -1  244.66    7.34
  -4  -1   0    0.97    0.72
   4   1   0    2.37    0.92
   4   1   0    0.97    0.49
  -4   1   0    1.89    0.90
  -4  -1   0    0.70    0.70
  -4   1   0    0.41    0.60
  -4   1  -1  215.28    7.44
  -4  -1  -1  210.62    7.86
   4  -1   1  218.26    7.29
  -4  -1  -2    9.12    1.58
  -4   1  -2    9.21    1.51
   4  -1   2   11.07    1.58
   4  -1   3  348.03   10.60
  -4  -1  -3  336.55   11.23
  -4   1  -3  332.78   11.18
   4   1   3  345.10    8.66
   4  -1   3  341.56   10.94
   4  -1   4   18.75    1.87
   4   1   4   17.98    1.43
  -4   1  -4   17.92    2.39
  -4  -1  -4   20.51    2.49
   4   1   5  108.01    4.29
   4  -1   5  108.98    5.05
   4  -1   5  104.52    5.77
   4   1   5  106.55    5.30
   4   1   6   24.40    2.05
   4  -1   6   25.19    2.41
   4  -1   6   26.64    2.94
   4   1   6   27.10    2.74
   4   1   7  289.98    9.33
   4  -1   7  278.71   11.09
   4   1   7  281.27   10.35
   4  -1   7  282.32   10.04
   4  -1   8   27.22    2.88
   4   1   8   24.46    2.47
   4   1   8   22.68    2.65
   4  -1   8   24.41    3.27
   4   1   9   35.56    3.17
   4   1   9   45.66    3.97
   4  -1   9   38.56    3.94
   4  -1   9   34.75    3.47
   4  -1  10   18.26    2.88
   4   1  10   23.00    3.09
   4  -1  10   19.83    3.21
   4   1  10   25.36    2.89
   4   1  11  167.39    8.23
   4   1  11  179.02    9.10
   4  -1  11  176.08    9.06
   4  -1  11  183.57    9.91
   4   1  12   15.22    2.57
   4  -1  12   11.49    2.63
   4  -1  12   19.06    3.51
   4   1  13   10.84    2.46
   4  -1  13    8.37    2.39
   4  -1  14    6.32    2.06
   4   1  14   10.12    2.36
   4  -1  15   97.77    7.77
  -4  -2  14   41.81    5.32
  -4  -2  13    8.70    2.74
  -4   2  13   13.12    3.27
  -4  -2  12   52.03    5.30
  -4   2  12   51.62    5.34
  -4  -2  11    9.04    2.49
  -4   2  11    9.49    2.37
  -4  -2  10  237.45   10.95
  -4  -2   9  107.78    6.70
  -4  -2   8   13.46    1.75
  -4  -2   8   16.22    2.55
  -4  -2   7   40.92    3.58
  -4  -2   7   37.16    2.73
  -4  -2   6  489.43   13.57
  -4  -2   6  506.44   15.18
  -4   2   5  176.25    5.00
  -4  -2   5  185.63    6.52
  -4  -2   5  204.90    7.64
  -4  -2   4    2.09    0.77
   4   2  -4    3.05    0.97
  -4  -2   4    3.13    0.98
  -4   2   4    2.43    0.40
  -4  -2   3  151.79    5.80
  -4  -2   3  167.50    6.03
   4   2  -3  167.13    6.04
   4   2  -3  165.35    5.95
  -4  -2   2  615.24   15.17
   4   2  -2  618.40   15.76
   4  -2  -2  587.55   13.83
   4   2  -2  619.91   15.13
  -4  -2   2  598.84   16.66
   4   2  -1  136.60    5.43
  -4  -2   1  142.55    6.09
  -4   2   1  132.13    5.81
   4   2  -1  144.35    4.46
  -4  -2   1  141.34    4.51
  -4   2   1  129.07    4.84
  -4  -2   0   24.35    2.48
  -4   2   0   23.14    2.22
   4   2   0   24.09    1.21
  -4  -2   0   21.02    2.25
  -4   2   0   23.73    1.85
  -4   2  -1   54.48    3.35
   4  -2   1   52.79    3.29
  -4  -2  -1   54.51    3.67
   4  -2   1   55.97    3.06
   4  -2   2  270.68    8.81
  -4  -2  -2  282.79    9.38
  -4  -2  -2  260.77    9.61
   4  -2   2  265.16    8.61
  -4   2  -2  261.75    9.20
   4  -2   3   71.67    3.86
   4   2   3   62.09    1.94
  -4   2  -3   71.16    4.25
  -4  -2  -3   72.23    4.29
   4  -2   4  124.14    5.44
   4   2   4  118.77    3.69
   4  -2   4  119.95    6.16
  -4   2  -4  113.33    5.93
  -4  -2  -4  117.96    6.03
   4  -2   5    9.03    1.56
   4   2   5   11.51    1.16
   4  -2   5   11.83    2.17
   4   2   5   10.38    1.55
   4   2   6   31.56    2.17
   4   2   6   33.74    2.87
   4  -2   6   30.76    2.93
   4  -2   6   35.55    3.53
   4  -2   7    9.38    1.87
   4   2   7   10.21    1.42
   4  -2   7    4.32    1.63
   4   2   7    8.78    1.66
  -4  -2  -7    7.65    1.30
   4   2   8  300.90   10.76
   4   2   8  305.95   10.00
   4  -2   8  303.95   12.44
   4  -2   8  307.97   11.44
   4  -2   9    2.69    1.21
   4   2   9    2.51    1.12
   4  -2   9    2.09    1.72
   4   2   9    0.64    0.91
   4  -2  10    7.20    2.64
   4  -2  10    6.50    1.97
   4   2  10    6.06    1.44
   4   2  10    4.39    1.40
   4   2  11   41.41    3.78
   4   2  11   42.39    4.07
   4  -2  11   46.36    4.53
   4  -2  11   42.74    4.83
   4   2  12  342.78   13.01
   4  -2  12  342.34   15.33
   4  -2  12  339.93   14.21
   4   2  13   34.27    3.78
   4  -2  13   27.21    4.13
   4  -2  14   37.31    4.83
   4  -2  15   37.49    5.14
  -4  -3  14    1.81    2.24
  -4  -3  13    4.99    2.37
  -4  -3  12    4.78    1.87
  -4  -3  11  111.35    7.57
  -4  -3  10    1.32    0.85
  -4  -3  10    3.07    1.58
  -4  -3   9   12.77    1.56
  -4  -3   9   12.41    2.42
  -4  -3   8    4.49    1.07
  -4  -3   8    5.72    1.75
  -4  -3   7   88.66    4.06
  -4  -3   7   94.54    5.66
  -4  -3   6    2.86    0.83
  -4  -3   6    5.27    1.65
  -4  -3   5   18.36    2.09
  -4  -3   4    8.48    1.43
   4   3  -4    8.51    1.40
   4   3  -3   46.18    2.79
  -4  -3   3   46.74    2.87
   4   3  -3   46.92    2.87
   4   3  -2   14.66    1.57
   4   3  -2   12.60    1.32
   4  -3  -2    9.66    0.68
  -4  -3   2   14.29    1.38
  -4  -3   2   15.17    2.29
  -4   3   2   14.01    1.23
  -4  -3   1   20.40    1.45
  -4   3   1   29.07    2.66
   4   3  -1   21.27    1.97
  -4  -3   1   23.16    2.53
   4   3  -1   25.69    1.58
  -4   3   1   23.44    1.56
  -4  -3   0   31.37    1.45
  -4   3   0   38.79    2.92
  -4  -3   0   35.55    3.03
  -4  -3   0   30.41    2.88
  -4   3  -1    4.31    1.09
  -4  -3  -1    4.73    1.07
  -4   3  -1    5.61    1.28
  -4  -3  -1    3.98    1.36
  -4  -3  -1    4.99    1.25
   4  -3   1    7.33    1.06
  -4   3  -2   45.55    3.30
  -4  -3  -2   52.06    3.46
  -4   3  -2   46.06    3.19
   4  -3   2   45.84    2.81
  -4  -3  -2   51.76    3.82
  -4   3  -3   29.54    2.75
   4  -3   3   28.15    2.43
  -4  -3  -3   28.39    2.68
   4  -3   3   29.27    3.00
   4  -3   4   75.51    4.12
   4  -3   4   78.26    5.06
   4  -3   5    2.38    1.14
   4  -3   5    3.68    1.66
   4   3   6   70.31    3.20
   4  -3   6   77.99    5.50
   4   3   6   82.64    4.19
   4  -3   6   71.55    4.82
  -4  -3  -6   76.14    3.29
   4   3   7   32.23    2.67
   4  -3   7   32.81    3.32
   4  -3   7   29.61    3.60
  -4  -3  -7   32.45    2.32
   4   3   7   29.82    2.26
   4   3   8   80.71    4.26
   4  -3   8   83.32    6.21
   4   3   8   85.88    4.68
   4  -3   8   84.34    5.68
  -4  -3  -8   80.56    4.26
   4   3   9    6.39    1.31
   4  -3   9    6.68    2.05
   4   3   9    6.76    1.52
   4  -3   9    5.09    1.65
   4   3  10   68.49    4.46
   4   3  10   64.80    4.37
   4  -3  10   58.06    5.70
   4  -3  10   64.17    5.33
   4   3  11   39.45    3.66
   4  -3  11   37.56    4.37
   4  -3  11   45.15    5.29
   4  -3  12   61.16    6.21
   4  -3  12   58.28    5.59
   4  -3  13    3.17    1.85
   4  -3  14   44.50    5.35
  -4  -4  14    0.84    2.11
  -4  -4  13  125.39    9.10
  -4  -4  12  203.92   11.24
  -4  -4  11  318.04   14.00
  -4  -4  10    0.93    1.30
  -4  -4   9  350.41    9.81
  -4  -4   9  364.05   13.96
  -4  -4   8  520.33   17.19
  -4  -4   7  902.74   25.10
  -4  -4   6    2.59    1.09
  -4  -4   5  812.87   21.94
   4   4  -4  826.66   20.30
  -4  -4   4  843.94   21.69
   4   4  -3 1118.34   26.41
  -4  -4   3 1138.00   27.08
   4   4  -3 1109.80   26.95
   4   4  -2    3.13    0.94
  -4  -4   2    2.88    1.47
  -4  -4   2    4.28    0.99
  -4  -4   1  922.78   21.53
  -4  -4   1  937.44   25.06
  -4   4   0  774.77   19.82
  -4  -4   0  727.89   16.66
  -4  -4   0  695.33   20.58
  -4  -4   0  714.87   20.33
  -4   4  -1  887.42   22.57
  -4  -4  -1  849.27   23.98
  -4  -4  -1  877.00   22.35
  -4   4  -1  872.26   22.38
  -4  -4  -1  874.45   23.76
   4  -4   1  897.79   20.56
  -4   4  -2    4.49    1.29
  -4   4  -2    5.40    1.36
  -4  -4  -2    2.59    1.03
   4  -4   2    5.61    1.06
  -4  -4  -2    3.58    1.32
  -4  -4  -2    5.16    1.58
  -4   4  -3  557.51   15.49
  -4   4  -3  568.42   16.26
   4  -4   3  571.61   17.51
  -4  -4  -3  552.53   16.10
   4  -4   4  512.49   16.74
   4  -4   5  268.13   10.82
   4   4   5  231.39    7.35
  -4  -4  -5  222.21    6.02
   4  -4   6   41.48    3.92
   4   4   6   37.34    2.51
  -4  -4  -6   35.21    2.02
   4  -4   6   31.63    3.77
   4  -4   7  181.48    9.30
   4   4   7  149.52    5.90
   4  -4   7  174.09    8.50
  -4  -4  -7  159.23    5.68
   4   4   8  194.82    7.08
   4  -4   8  193.14   10.22
   4  -4   8  201.37    9.59
   4  -4   9    7.54    1.94
   4   4   9   10.65    1.58
   4  -4   9   11.99    2.85
   4  -4  10   29.78    4.22
   4  -4  10   22.66    3.41
   4  -4  11    8.10    2.16
   4  -4  11    4.98    2.31
   4  -4  12   52.51    5.55
   4  -4  12   50.78    6.03
   4  -4  13    5.95    2.44
   4  -4  14   15.96    3.59
  -4  -5  13    6.57    2.59
  -4  -5  12   80.33    7.04
  -4  -5  11   21.95    3.67
  -4  -5  10  109.54    7.51
  -4  -5   9    1.01    1.37
  -4  -5   8  185.86    9.23
  -4  -5   7   30.25    3.33
  -4  -5   6  207.60    8.91
  -4  -5   5    5.56    1.46
   4   5  -4  277.61    8.31
  -4  -5   4  275.83    9.71
   4   5  -3   43.91    2.79
  -4  -5   3   54.09    3.44
  -4  -5   2  263.44    8.46
  -4  -5   2  259.81   10.70
  -4  -5   1   68.36    3.33
  -4  -5   1   68.67    5.01
  -4   5   0  276.89    9.93
  -4   5   0  277.66    9.15
  -4  -5   0  268.37   10.96
  -4  -5   0  272.76    7.62
  -4  -5   0  282.03   10.64
  -4  -5  -1   60.41    2.39
  -4   5  -1   72.64    4.27
   4  -5   1   77.75    4.97
  -4  -5  -1   66.28    3.83
  -4  -5  -1   68.96    4.94
  -4  -5  -1   70.60    4.80
   4  -5   1   60.25    2.56
  -4   5  -1   68.86    3.92
   4  -5   2  207.46    8.80
  -4   5  -2  205.55    7.56
  -4  -5  -2  203.36    9.05
  -4   5  -2  199.87    7.45
  -4  -5  -2  213.16    7.50
  -4  -5  -2  213.03    8.79
  -4  -5  -2  181.25    4.53
  -4   5  -3  158.22    6.60
   4  -5   3  161.23    8.19
   4  -5   4  162.47    8.23
  -4  -5  -4  141.52    3.79
   4  -5   5   64.62    5.19
  -4  -5  -5   55.95    2.27
   4   5   5   58.72    2.72
   4  -5   6   85.71    6.22
   4   5   6   83.84    3.36
   4  -5   6   78.82    5.78
   4   5   7  172.24    5.62
   4  -5   7  190.16    9.94
   4  -5   7  189.10    9.41
   4  -5   8   54.79    5.43
   4  -5   8   62.55    5.37
   4  -5   9   33.54    4.26
   4  -5   9   35.00    4.42
   4  -5  10   36.35    4.91
   4  -5  10   27.87    3.96
   4  -5  11  143.61    9.97
   4  -5  11  139.00    9.09
   4  -5  12   12.99    3.46
   4  -5  12   15.69    3.50
   4  -5  13    6.67    2.38
  -4  -6  12   82.73    7.29
  -4  -6  11    7.56    2.45
  -4  -6  10    1.50    1.64
  -4  -6   9   47.70    4.79
  -4  -6   8  250.44   11.21
  -4  -6   7   58.86    4.80
  -4  -6   6    7.49    1.90
  -4  -6   5  115.92    6.21
   4   6  -4  455.33   12.15
  -4  -6   4  456.15   14.21
   4   6  -3   64.72    3.53
  -4  -6   3   71.59    4.26
  -4  -6   3   75.56    5.71
  -4  -6   2    1.91    0.69
  -4  -6   2    4.42    1.80
  -4  -6   1   89.16    6.06
  -4  -6   1   83.05    4.06
  -4  -6   0  471.67   16.23
   4  -6   0  465.25   15.02
  -4  -6   0  452.69   12.10
  -4   6   0  443.54   13.02
  -4  -6   0  460.99   13.13
  -4  -6   0  476.08   15.52
   4  -6   1   28.35    3.14
  -4  -6  -1   32.60    2.57
  -4   6  -1   32.82    3.03
  -4  -6  -1   32.17    3.41
  -4  -6  -1   28.55    3.42
  -4   6  -1   34.49    2.68
  -4  -6  -1   36.17    2.08
  -4   6  -2    5.82    1.35
  -4  -6  -2    9.34    2.05
  -4  -6  -2    5.71    0.75
   4  -6   2    4.73    1.51
   4  -6   2    4.68    0.82
  -4  -6  -2    4.38    1.47
  -4  -6  -3    3.90    0.63
  -4   6  -3    1.76    0.91
  -4  -6  -3    3.51    0.59
   4  -6   3    2.52    1.14
   4  -6   4  393.57   14.80
   4  -6   5    4.18    1.97
   4  -6   6   12.19    2.63
   4  -6   6   16.24    2.82
   4  -6   7   39.89    4.40
   4  -6   7   34.21    4.44
   4  -6   8  190.17   10.76
   4  -6   8  171.00    9.86
   4  -6   9   68.02    6.08
   4  -6   9   61.56    6.29
   4  -6  10    2.18    1.42
   4  -6  10    7.75    2.93
   4  -6  11  103.04    8.74
   4  -6  11  105.71    8.13
   4  -6  12   56.09    6.17
  -4  -7  12   12.89    3.19
  -4  -7  11   56.08    6.03
  -4  -7  10    8.49    2.43
  -4  -7   9    6.47    2.10
  -4  -7   8   12.86    2.63
  -4  -7   7   68.53    5.43
  -4  -7   6    2.98    1.56
  -4  -7   5   19.31    2.68
  -4  -7   4    5.03    1.43
   4  -7  -3   37.08    2.03
  -4  -7   3   40.54    3.32
  -4  -7   3   35.45    4.23
   4  -7  -2    3.21    0.89
  -4  -7   2    2.46    1.58
   4  -7  -2    2.63    1.07
  -4  -7   2    2.27    0.92
  -4  -7   1   22.83    3.02
  -4   7   1   21.22    1.97
  -4  -7   1   19.53    2.06
   4  -7  -1   27.77    3.05
  -4  -7   1   20.18    1.91
  -4  -7   1   28.36    3.74
  -4  -7   0    3.98    1.35
  -4  -7   0    3.45    0.89
  -4  -7   0    4.63    1.73
  -4   7   0    5.19    1.08
   4  -7   0    5.19    1.65
  -4  -7   0    4.09    1.01
  -4   7  -1    4.10    1.39
  -4  -7  -1    4.56    0.94
  -4  -7  -1    3.67    1.62
   4  -7   1    3.05    1.46
  -4  -7  -1    3.34    1.32
  -4   7  -2    2.86    1.12
  -4  -7  -2    1.00    1.16
   4  -7   2    5.38    1.75
  -4  -7  -2    1.93    0.71
  -4  -7  -2    2.09    1.25
  -4  -7  -3    7.71    1.08
  -4   7  -3    6.43    1.45
  -4  -7  -3    9.61    2.45
   4  -7   3   10.94    2.46
  -4   7  -4    7.43    1.45
   4  -7   4    8.07    2.17
   4  -7   5   14.09    2.70
   4  -7   6    4.86    2.07
   4  -7   6    6.21    2.29
   4  -7   7    2.22    1.76
   4  -7   7    4.72    2.23
   4  -7   8   22.00    3.89
   4  -7   8   17.14    3.29
   4  -7   9   32.75    4.60
   4  -7   9   32.68    4.70
   4  -7  10   16.90    3.56
   4  -7  10   15.34    3.86
   4  -7  11    4.09    2.37
  -4  -8  11   87.67    7.70
  -4  -8  10  161.01   10.06
  -4  -8   9  164.60    9.80
  -4  -8   8   12.04    2.46
  -4  -8   7  188.89    9.83
  -4  -8   6  330.31   13.20
  -4  -8   5  237.92   10.38
  -4  -8   4   25.73    3.06
   4  -8  -4   29.60    2.87
  -4  -8   4   28.89    4.22
  -4  -8   3  261.99   10.28
   4  -8  -3  291.50   10.73
  -4  -8   3  291.29   13.46
   4  -8  -2  508.86   16.07
  -4  -8   2  503.96   18.70
  -4  -8   2  476.36   14.88
  -4  -8   1  204.06    9.78
   4  -8  -1  211.54    9.22
  -4  -8   1  184.18    7.63
  -4  -8   1  209.12   10.88
  -4  -8   0    9.64    1.50
   4  -8   0    9.46    2.23
  -4  -8   0    4.74    1.99
  -4  -8   0    7.85    2.21
  -4   8  -1  146.30    7.40
  -4  -8  -1  161.79    9.33
   4  -8   1  178.61    8.71
  -4  -8  -1  157.71    6.24
  -4  -8  -1  161.75    8.48
  -4   8  -2  339.44   12.20
   4  -8   2  378.00   14.35
  -4  -8  -2  391.35   15.49
  -4  -8  -2  378.42   14.29
  -4   8  -3  115.15    5.99
  -4  -8  -3  139.23    8.58
   4  -8   3  137.35    8.18
   4  -8   4    2.68    1.89
   4  -8   5   55.25    5.53
   4  -8   6  130.78    8.85
   4  -8   6  136.34    9.09
   4  -8   7   23.13    4.08
   4  -8   7   20.68    3.74
   4  -8   8   10.68    2.72
   4  -8   8    4.19    2.31
   4  -8   9   15.16    3.37
   4  -8   9   18.64    4.20
  -4  -9  10   30.00    4.66
  -4  -9   9   92.46    7.39
  -4  -9   8   32.97    4.29
  -4  -9   7   47.50    4.96
  -4  -9   6   53.97    5.07
  -4  -9   5  118.97    7.23
  -4  -9   4   97.58    7.93
  -4  -9   4   82.83    5.76
  -4  -9   3   85.54    5.50
  -4  -9   3   91.53    7.59
   4  -9  -2   86.87    5.52
  -4  -9   2   88.12    7.36
  -4  -9   2   86.94    5.36
  -4  -9   2   85.43    6.34
  -4  -9   1   90.12    7.30
   4  -9  -1   85.02    5.75
  -4  -9   1   93.08    6.58
   4  -9   0  121.34    7.18
  -4  -9   0  127.76    8.60
  -4  -9   0  118.11    7.45
  -4   9  -1   78.92    5.41
  -4  -9  -1   80.07    6.77
   4  -9   1   86.88    6.24
  -4  -9  -1   78.35    5.97
  -4   9  -2  106.86    6.02
  -4  -9  -2   96.95    7.52
   4  -9   2  104.82    7.09
  -4  -9  -3   23.73    3.85
   4  -9   3   24.22    3.69
   4  -9   4  120.05    8.20
   4  -9   5   29.49    4.18
   4  -9   5   35.36    4.74
   4  -9   6   75.80    7.08
   4  -9   6   79.25    7.22
   4  -9   7    1.54    1.76
   4  -9   7    0.94    2.40
   4  -9   8   74.85    7.40
   4  -9   8   77.96    7.28
  -4 -10   9   16.27    3.69
  -4 -10   8   90.22    7.35
  -4 -10   7   19.50    3.41
  -4 -10   6    7.06    2.02
  -4 -10   5   32.26    4.94
  -4 -10   4  160.71   11.06
  -4 -10   3   36.73    4.34
  -4 -10   3   39.05    5.33
  -4 -10   2    3.41    1.68
  -4 -10   2    5.03    2.50
  -4 -10   1   52.79    5.89
  -4 -10   1   44.21    4.74
  -4 -10   0  163.94   10.45
  -4 -10   0  173.43    9.43
  -4 -10  -1   57.86    5.17
   4 -10   1   59.46    5.31
  -4 -10  -1   56.44    6.02
  -4 -10  -2    3.43    2.22
   4 -10   2    3.34    2.02
   4 -10   3   58.30    5.73
  -4 -10  -3   58.43    6.08
   4 -10   4   52.90    5.64
   4 -10   5   55.92    6.46
   4 -10   5   68.58    6.74
   4 -10   6   18.31    3.88
   4 -10   7   47.75    6.04
  -4 -11   3   21.57    4.09
  -4 -11   2   51.41    6.11
  -4 -11   1   12.67    3.08
  -4 -11   0   32.99    4.87
  -4 -11  -1    4.03    2.53
  -4 -11  -2   22.26    4.24
   4 -11   4   14.71    3.59
   4 -11   5   -0.39    2.04
  -5   0  14   -0.15    1.77
  -5   0  13   27.26    4.32
  -5   0  12   -0.06    1.36
  -5   0  11  228.19   11.43
  -5   0  10    2.54    1.82
  -5   0   9  121.78    7.39
  -5   0   8    0.42    1.15
  -5   0   7  387.50   13.57
  -5   0   6    0.01    0.95
  -5   0   5  305.52   10.31
  -5   0   5  279.44    9.24
  -5   0   4   -0.09    0.73
  -5   0   4    0.13    0.76
   5   0  -3  446.64   13.07
  -5   0   3  446.96   13.34
  -5   0   3  448.45   12.51
   5   0  -2    0.83    1.03
  -5   0   2    1.99    0.98
  -5   0   2    1.88    0.89
  -5   0   1  448.98   13.31
   5   0  -1  446.36   12.74
  -5   0   1  461.31   13.51
   5   0  -1  448.77   12.37
   5   0   0    6.63    1.41
  -5   0   0    5.91    1.49
   5   0   1  311.84   10.13
  -5   0  -1  298.87   10.30
  -5   0  -2    0.34    1.31
  -5   0  -3  376.09   12.79
   5   0   4    0.16    0.58
  -5   0  -4    0.62    1.23
   5   0   5   94.93    4.39
   5   0   6    0.45    0.82
   5   0   6   -1.24    1.30
   5   0   7  191.84    7.49
   5   0   7  183.80    8.74
   5   0   8   -0.15    0.77
   5   0   8    1.64    1.18
   5   0   9    6.89    1.65
   5   0   9    5.50    1.84
   5   0  10   -0.75    0.91
   5   0  10   -1.18    1.61
   5   0  11   73.38    5.46
   5   0  11   77.35    6.17
   5   0  12    0.36    1.53
   5   0  12    1.15    1.36
   5   0  13    5.84    2.19
   5   0  13    8.95    2.61
  -5   1  14   19.88    4.13
  -5  -1  14   21.20    3.94
  -5  -1  13   84.88    7.28
  -5   1  13   88.30    7.35
  -5  -1  12  299.47   13.88
  -5   1  12  282.99   13.55
  -5  -1  11   84.34    6.48
  -5   1  11   73.14    6.15
  -5   1  10    9.01    2.45
  -5  -1  10   14.89    2.73
  -5  -1   9   22.66    3.12
  -5   1   9   16.18    2.87
  -5  -1   8  520.36   16.96
  -5  -1   8  502.34   15.50
  -5  -1   7    6.07    1.68
  -5  -1   7    6.60    1.53
  -5  -1   6   17.24    2.39
  -5  -1   6   14.90    1.99
  -5  -1   5   24.68    2.40
  -5  -1   5   26.55    2.62
  -5   1   5   26.87    1.99
  -5  -1   4  750.27   19.59
  -5   1   4  725.29   20.21
  -5   1   4  740.70   17.86
  -5  -1   4  734.09   19.59
  -5  -1   4  734.92   19.59
  -5  -1   3  139.77    6.09
  -5   1   3  143.69    6.45
   5   1  -3  155.34    6.01
  -5   1   3  152.18    5.24
  -5  -1   3  144.00    6.18
  -5  -1   2   64.33    3.87
  -5   1   2   67.62    4.13
   5   1  -2   71.67    3.52
  -5  -1   2   72.09    4.09
   5  -1  -2   71.68    3.40
   5   1  -1  283.53    8.06
  -5   1   1  276.76    9.45
  -5  -1   1  273.44    9.28
   5  -1  -1  237.15    8.07
   5   1  -1  274.12    9.26
  -5   1   1  270.80    8.95
  -5   1   0  517.89   14.86
   5  -1   0  496.97   13.91
   5   1   0  509.46   14.85
  -5   1   0  508.06   14.41
  -5  -1   0  496.64   15.11
   5   1   0  530.90   12.86
  -5  -1  -1  430.94   13.52
  -5  -1  -2  134.23    6.56
  -5   1  -2  132.40    6.50
   5  -1   2  146.68    6.39
  -5   1  -3  640.92   18.91
  -5  -1  -3  653.36   18.93
   5   1   3  660.76   15.52
  -5  -1  -4  481.49   15.15
  -5   1  -4  427.16   14.64
   5   1   4  448.87   11.53
   5   1   5  582.29   14.68
   5  -1   5  588.09   17.97
   5  -1   5  561.74   15.99
   5   1   6  141.55    5.53
   5  -1   6  139.39    7.43
   5   1   6  149.84    7.08
   5  -1   6  140.50    6.34
   5   1   7  410.20   12.06
   5  -1   7  380.86   14.43
   5   1   7  416.68   13.99
   5  -1   7  412.93   13.11
   5   1   8  194.20    8.78
   5   1   8  199.12    7.61
   5  -1   8  198.48    9.54
   5  -1   8  177.53    8.07
   5   1   9  401.29   12.73
   5   1   9  366.80   13.80
   5  -1   9  357.10   14.46
   5  -1   9  392.95   13.61
   5   1  10   31.47    3.22
   5  -1  10   30.08    3.47
   5   1  10   31.63    3.60
   5  -1  10   29.89    3.81
   5   1  11  170.10    8.17
   5   1  11  188.97    9.54
   5  -1  11  162.62    8.65
   5  -1  11  171.18    9.88
   5   1  12   71.02    5.34
   5  -1  12   64.69    5.52
   5   1  12   70.06    5.89
   5  -1  12   71.28    6.34
   5  -1  13  101.45    7.29
   5  -1  13  114.19    8.38
   5  -1  14    4.47    2.10
  -5  -2  14    2.32    2.06
  -5  -2  13    4.07    2.18
  -5  -2  12    1.63    2.01
  -5  -2  11   75.14    6.25
  -5  -2  11   68.29    4.64
  -5  -2  10    0.65    1.11
  -5  -2  10    0.27    1.20
  -5  -2   9    3.52    1.12
  -5  -2   9    5.04    1.93
  -5  -2   8    2.23    1.20
  -5  -2   8   -0.51    1.11
  -5  -2   7   55.36    4.29
  -5  -2   7   52.07    3.54
  -5  -2   6    0.19    0.65
  -5  -2   6    0.55    0.84
  -5   2   6    0.48    0.43
  -5  -2   5    5.81    1.28
  -5  -2   5    7.09    1.47
  -5   2   5    6.43    0.74
   5   2  -4    1.76    0.91
  -5  -2   4   -0.11    0.63
  -5  -2   4    1.36    0.82
  -5  -2   4    0.63    0.88
  -5  -2   3   21.13    1.98
   5   2  -3   21.25    2.21
  -5   2   3   20.33    2.48
   5   2  -3   21.97    1.95
  -5  -2   3   18.81    2.37
   5   2  -2    1.56    0.74
  -5   2   2    2.65    1.12
   5  -2  -2    2.38    0.69
  -5  -2   2    2.21    1.04
  -5  -2   2    1.35    0.58
  -5   2   1   14.30    2.04
   5   2  -1   18.54    1.43
   5  -2  -1   17.10    1.56
  -5  -2   1   17.43    2.19
  -5   2   1   18.20    1.80
  -5  -2   0    7.76    1.61
  -5   2   0    6.29    1.28
   5   2   0    8.34    0.84
  -5   2   0    7.52    1.31
  -5  -2   0    6.44    1.45
  -5   2  -1    6.88    1.37
   5   2   1    7.01    0.62
  -5  -2  -1    7.82    1.65
  -5  -2  -2   12.44    1.89
  -5   2  -2    9.39    1.70
  -5  -2  -2   13.88    2.18
   5  -2   2   11.12    1.67
   5   2   3   49.02    1.64
  -5  -2  -3   54.44    4.06
  -5   2  -3   57.51    4.10
   5   2   4   22.54    1.25
  -5   2  -4   23.39    2.85
  -5  -2  -4   24.68    2.83
   5  -2   5    6.65    1.45
   5   2   5    7.05    0.86
   5  -2   5    7.47    1.89
   5   2   6   25.47    1.87
   5  -2   6   28.03    3.35
   5  -2   6   28.54    2.93
   5   2   6   26.38    2.70
   5   2   7  112.11    4.78
   5   2   7  118.75    6.15
   5  -2   7  116.78    7.06
   5  -2   7  106.77    6.01
   5   2   8   36.08    2.78
   5   2   8   38.31    3.46
   5  -2   8   34.57    4.12
   5  -2   8   31.23    3.32
   5   2   9    9.58    1.73
   5  -2   9   14.09    2.47
   5   2   9    8.87    1.92
   5  -2   9   10.40    2.52
   5   2  10   31.23    3.04
   5   2  10   34.43    3.61
   5  -2  10   32.21    3.68
   5  -2  10   36.55    4.51
   5   2  11  135.89    7.00
   5   2  11  144.11    7.89
   5  -2  11  137.36    8.97
   5  -2  11  137.25    8.17
   5  -2  12   29.29    3.75
   5   2  12   34.37    3.94
   5  -2  12   30.23    4.47
   5  -2  13   12.38    2.69
   5  -2  13   15.44    3.78
   5  -2  14   22.15    3.77
   5  -2  15  119.95    9.16
  -5  -3  14   91.17    7.86
  -5  -3  13   80.07    7.15
  -5  -3  12   13.10    2.97
  -5  -3  11   82.35    6.54
  -5  -3  10   74.41    4.35
  -5  -3  10   79.66    6.10
  -5  -3   9  119.78    5.57
  -5  -3   9  126.68    7.54
  -5  -3   8  134.03    5.63
  -5  -3   8  141.09    7.41
  -5  -3   7   21.90    2.18
  -5  -3   7   23.28    2.84
  -5  -3   6   11.30    1.58
  -5  -3   6   11.98    1.87
  -5  -3   5   29.45    2.89
  -5  -3   4  585.29   16.14
  -5  -3   4  574.55   17.64
   5   3  -3    1.62    0.86
  -5  -3   3    1.88    0.83
   5   3  -3    1.74    0.82
  -5  -3   3    0.34    1.11
  -5  -3   2   17.94    1.65
  -5  -3   2   16.14    2.31
  -5   3   2   17.10    2.28
   5   3  -2   19.36    1.64
   5  -3  -2   14.83    1.11
  -5   3   2   18.79    1.68
  -5  -3   1    8.81    1.00
   5   3  -1    8.54    1.00
  -5   3   1    9.72    1.77
  -5  -3   1   10.08    1.91
  -5   3   1    7.46    1.16
  -5  -3   0 1310.81   32.91
  -5  -3   0 1322.71   32.95
   5   3   0 1288.30   28.04
  -5   3  -1   50.56    3.59
  -5  -3  -1   43.63    3.74
  -5  -3  -1   48.07    3.64
  -5   3  -1   43.65    3.50
  -5  -3  -1   46.21    3.90
  -5   3  -2  101.87    5.24
  -5  -3  -2  106.97    5.63
  -5   3  -2   93.04    5.36
  -5  -3  -2  108.86    6.17
   5  -3   2  104.87    4.89
  -5  -3  -3   32.89    3.10
  -5   3  -3   26.60    2.86
   5  -3   3   23.25    2.37
  -5  -3  -4 1462.71   35.89
   5  -3   4 1388.59   36.39
  -5   3  -4 1387.06   35.64
   5  -3   5   38.54    3.91
   5  -3   6  166.15    8.81
   5   3   6  161.20    6.95
   5   3   6  174.91    5.25
   5  -3   6  170.73    8.13
   5  -3   7   72.36    5.68
   5   3   7   74.12    4.53
   5  -3   7   70.89    5.21
   5   3   7   74.78    3.43
   5   3   8  913.64   24.33
   5  -3   8  892.30   27.58
   5  -3   8  897.78   26.00
   5   3   8  944.24   22.68
   5   3   9    4.71    1.33
   5   3   9    5.65    1.65
   5  -3   9    3.20    1.57
   5  -3   9    3.46    1.60
   5   3  10   96.32    5.77
   5  -3  10   94.71    7.39
   5  -3  10   88.25    6.44
   5  -3  11   25.43    3.72
   5  -3  11   17.11    3.42
   5  -3  12  408.19   18.05
   5  -3  12  419.12   16.87
   5  -3  13    1.33    1.80
   5  -3  13   -2.20    1.86
   5  -3  14   42.93    5.38
  -5  -4  13    3.95    2.27
  -5  -4  12   62.32    6.05
  -5  -4  11   37.64    4.59
  -5  -4  10   96.54    6.91
  -5  -4   9    4.62    1.78
  -5  -4   8  144.01    7.84
  -5  -4   7   88.18    5.69
  -5  -4   6  166.01    7.70
  -5  -4   5   56.60    3.93
   5   4  -4  193.99    7.20
  -5  -4   4  204.55    7.73
  -5  -4   4  192.65    9.07
   5   4  -3  134.93    5.81
  -5  -4   3  146.87    5.83
  -5  -4   3  133.85    7.30
   5   4  -3  139.20    5.69
  -5   4   3  136.87    4.81
  -5  -4   2  173.54    5.98
   5  -4  -2  153.49    4.54
  -5  -4   2  176.78    8.26
  -5   4   2  189.99    5.53
   5   4  -2  169.01    5.93
  -5  -4   1  162.96    8.00
  -5  -4   1  166.92    5.32
  -5   4   1  162.65    7.49
  -5   4   0  171.75    7.45
  -5  -4   0  162.97    7.91
  -5  -4   0  168.75    8.07
  -5  -4   0  155.07    4.37
  -5   4  -1  145.49    6.62
  -5  -4  -1  139.36    7.31
  -5   4  -1  133.02    6.40
  -5  -4  -1  136.90    6.46
  -5  -4  -1  128.96    7.06
  -5   4  -2  115.98    5.88
  -5  -4  -2  124.52    6.04
  -5  -4  -2  111.07    6.51
   5  -4   2  113.88    4.98
  -5   4  -2  107.95    5.89
   5  -4   3  237.29   10.31
  -5   4  -3  227.66    9.43
  -5  -4  -3  236.03    9.41
   5  -4   3  245.76    8.58
  -5  -4  -4   91.50    5.52
   5  -4   4   83.15    5.98
   5  -4   5   73.99    5.62
   5   4   6   32.64    2.68
   5  -4   6   37.49    4.27
   5  -4   6   41.37    4.06
   5   4   7  201.13    7.57
   5  -4   7  174.35    9.81
   5  -4   7  210.08    9.74
   5  -4   8   21.49    3.16
   5   4   8   21.90    2.33
   5  -4   8   18.82    3.54
   5  -4   9   22.66    3.35
   5  -4   9   26.26    4.11
   5  -4  10    2.43    2.15
   5  -4  10    3.24    1.92
   5  -4  11  106.54    8.63
   5  -4  11  119.32    8.12
   5  -4  12    1.65    1.87
   5  -4  12    4.44    2.62
   5  -4  13    5.22    2.76
   5  -4  13    2.93    2.23
  -5  -5  13   27.87    4.41
  -5  -5  12  347.06   15.77
  -5  -5  11   41.23    4.93
  -5  -5  10   16.21    3.18
  -5  -5   9   63.59    5.43
  -5  -5   8  251.57   11.06
  -5  -5   7   58.79    4.68
  -5  -5   6    6.52    1.77
  -5  -5   5  130.10    6.47
  -5  -5   4   69.11    5.58
   5   5  -4   76.33    4.01
  -5  -5   4   85.05    4.61
  -5   5   4   70.97    2.89
  -5  -5   3   83.15    4.30
  -5  -5   3   80.33    6.02
  -5  -5   2  227.64    7.51
  -5  -5   2  227.87   10.36
  -5   5   1  153.04    7.31
  -5  -5   1  138.58    4.91
  -5  -5   1  142.26    7.50
  -5  -5   1  130.12    7.50
  -5  -5   0    5.67    1.67
  -5  -5   0    9.13    0.91
  -5   5   0    7.42    1.62
  -5  -5   0    7.38    1.97
  -5   5  -1   90.68    5.23
  -5  -5  -1   90.17    6.03
  -5   5  -1   80.91    4.87
  -5  -5  -1   90.47    5.05
  -5  -5  -1   94.79    6.04
  -5   5  -2  524.63   15.97
  -5  -5  -2  525.13   17.89
   5  -5   2  546.46   17.65
  -5   5  -2  520.65   15.94
  -5  -5  -2  533.15   15.95
  -5  -5  -2  514.06   17.36
   5  -5   2  544.01   14.14
  -5   5  -3   98.10    5.30
   5  -5   3   96.77    6.39
  -5   5  -3   88.15    5.38
  -5  -5  -3   88.40    5.33
   5  -5   3   96.11    4.68
   5  -5   4   23.45    3.38
   5  -5   5   79.85    6.12
   5  -5   6  431.96   15.80
   5  -5   6  421.54   16.35
   5   5   6  425.36   12.01
   5  -5   7   36.16    4.43
   5  -5   7   37.57    4.21
   5  -5   8   21.63    3.78
   5  -5   8   16.45    2.85
   5  -5   9   40.92    4.69
   5  -5   9   46.49    5.46
   5  -5  10  258.25   13.63
   5  -5  10  256.86   12.61
   5  -5  11    9.94    3.25
   5  -5  11    8.90    2.72
   5  -5  12    1.36    1.96
   5  -5  12   -2.21    2.37
  -5  -6  12   35.60    4.80
  -5  -6  11   68.82    6.38
  -5  -6  10   22.14    3.55
  -5  -6   9    8.82    2.46
  -5  -6   8   19.19    3.06
  -5  -6   7   52.37    4.58
  -5  -6   6    9.40    2.05
  -5  -6   5    6.13    1.72
  -5  -6   4   10.30    2.78
  -5  -6   4   10.42    1.70
  -5  -6   3   12.19    2.76
  -5  -6   3   10.12    1.53
  -5  -6   2    2.44    1.52
  -5  -6   2    2.90    1.00
  -5  -6   1    1.18    1.14
  -5  -6   1    1.27    1.48
  -5  -6   1    1.09    0.63
  -5   6   0    7.83    1.48
  -5  -6   0    5.12    1.63
  -5   6   0   10.16    1.99
  -5  -6   0    9.96    1.72
  -5  -6   0    6.73    0.92
  -5  -6   0    9.20    1.96
  -5   6  -1    5.88    1.68
  -5  -6  -1    7.08    2.05
  -5  -6  -1    3.46    0.48
  -5   6  -1    3.98    1.28
  -5  -6  -1    5.77    1.46
   5  -6   1    2.70    1.44
  -5  -6  -1    4.38    1.51
  -5   6  -2    6.43    1.52
  -5  -6  -2   10.34    2.47
  -5   6  -2    8.77    1.84
  -5  -6  -2    7.37    1.70
   5  -6   2    8.91    2.22
  -5  -6  -2    8.37    2.04
  -5   6  -3    2.51    1.13
   5  -6   3    2.05    1.84
   5  -6   4   15.84    2.90
   5  -6   5   42.29    4.69
   5  -6   6   22.67    3.56
   5  -6   6   13.60    2.60
   5  -6   7   -2.03    1.78
   5  -6   7    1.82    1.82
   5  -6   8   35.94    4.46
   5  -6   8   44.66    5.40
   5  -6   9   35.83    4.75
   5  -6   9   47.43    5.84
   5  -6  10   33.64    4.58
   5  -6  10   30.58    4.91
   5  -6  11    4.15    2.99
   5  -6  11    2.61    2.07
  -5  -7  11    3.98    2.08
  -5  -7  10  107.98    7.88
  -5  -7   9    3.96    2.05
  -5  -7   8   39.30    4.40
  -5  -7   7   25.07    3.67
  -5  -7   6   27.74    3.22
  -5  -7   5   61.90    4.60
  -5  -7   4  162.27    7.48
  -5  -7   4  168.14    9.86
  -5  -7   3   59.59    4.00
  -5  -7   3   63.96    5.92
  -5  -7   2    0.51    0.65
  -5  -7   2    5.03    2.24
  -5  -7   1  174.00    6.45
  -5  -7   1  179.74    9.94
   5  -7  -1  194.10    8.99
  -5   7   1  169.57    7.19
  -5  -7   1  176.73    7.24
  -5  -7   1  174.72    9.18
  -5   7   0  364.24   13.39
   5  -7   0  395.61   14.31
  -5  -7   0  366.94   10.25
  -5  -7   0  376.86   15.15
  -5   7   0  369.64   11.89
  -5  -7   0  371.71   11.84
  -5  -7   0  378.77   14.53
  -5   7  -1  160.49    7.90
  -5  -7  -1  179.28    9.78
   5  -7   1  176.66    9.03
  -5   7  -1  157.61    7.03
  -5  -7  -1  192.47    7.52
  -5  -7  -1  181.53    9.31
  -5   7  -2   16.42    2.44
   5  -7   2   21.02    3.21
  -5  -7  -2   18.94    3.10
  -5  -7  -2   15.85    2.81
  -5   7  -3  205.52    8.66
   5  -7   3  189.36   10.07
   5  -7   4  401.57   16.03
   5  -7   5  218.31   11.25
   5  -7   6   33.96    4.45
   5  -7   6   28.42    4.35
   5  -7   7  221.84   12.21
   5  -7   7  232.84   12.04
   5  -7   8  252.64   13.46
   5  -7   8  247.34   12.75
   5  -7   9  163.74   10.90
   5  -7   9  149.16    9.85
   5  -7  10    8.67    3.06
   5  -7  10   13.83    3.74
  -5  -8  11    5.34    2.13
  -5  -8  10   17.05    3.31
  -5  -8   9   36.69    4.62
  -5  -8   8   43.08    4.75
  -5  -8   7    7.70    2.19
  -5  -8   6   65.15    5.19
  -5  -8   5   24.29    3.07
  -5  -8   5   25.47    4.24
  -5  -8   4  126.19    6.74
  -5  -8   4  129.29    9.02
  -5  -8   3    5.50    1.38
  -5  -8   3    7.38    2.59
   5  -8  -3    4.29    1.50
  -5  -8   2  147.14    6.69
  -5  -8   2  164.58    9.89
   5  -8  -2  156.94    8.06
  -5  -8   2  146.34    8.75
  -5  -8   1    1.91    1.64
  -5  -8   1    2.33    1.63
   5  -8  -1    0.41    1.25
  -5   8   0  198.01    9.47
  -5  -8   0  195.49   10.88
   5  -8   0  222.76   10.35
  -5  -8   0  208.50   10.43
  -5   8  -1    0.69    1.00
  -5  -8  -1    0.16    1.57
   5  -8   1    1.64    1.58
  -5  -8  -1    0.82    1.33
  -5   8  -2  178.55    8.54
  -5  -8  -2  196.45   10.78
   5  -8   2  200.60   10.26
  -5  -8  -2  200.84   10.31
   5  -8   3   10.32    2.73
  -5   8  -3    5.10    1.54
   5  -8   4  207.49   11.05
   5  -8   5    0.47    2.16
   5  -8   6  136.73    9.34
   5  -8   6  153.00    9.84
   5  -8   7   35.51    5.01
   5  -8   7   22.29    3.94
   5  -8   8  117.24    9.19
   5  -8   8  107.26    8.43
   5  -8   9   10.67    3.83
  -5  -9  10   40.88    5.33
  -5  -9   9   64.37    6.32
  -5  -9   8   16.16    3.12
  -5  -9   7   68.59    5.89
  -5  -9   6  121.26    7.44
  -5  -9   6  108.97    9.07
  -5  -9   5   33.98    5.16
  -5  -9   4   13.13    3.57
  -5  -9   3   11.98    2.80
  -5  -9   3   11.11    2.73
  -5  -9   2  166.79   10.51
   5  -9  -2  175.11    8.87
  -5  -9   2  166.88    9.67
  -5  -9   1    3.20    2.02
   5  -9  -1    4.11    1.76
  -5  -9   1    0.36    1.33
  -5   9   0    0.05    1.32
  -5  -9   0   -1.08    1.97
   5  -9   0    2.69    1.79
  -5  -9   0   -0.78    1.30
  -5   9  -1    3.19    1.63
  -5  -9  -1    2.34    1.80
   5  -9   1    7.42    2.31
  -5  -9  -1    6.20    2.27
  -5   9  -2  133.79    7.41
   5  -9   2  161.95    9.32
  -5  -9  -2  154.82    9.95
   5  -9   3   15.16    3.15
   5  -9   4   -1.18    1.97
   5  -9   5   16.62    3.31
   5  -9   6  122.03    9.01
   5  -9   6   93.88    8.12
   5  -9   7   19.51    3.80
   5  -9   7    5.15    2.35
  -5 -10   5   -0.30    1.74
  -5 -10   4   18.42    4.04
  -5 -10   3   -0.70    1.57
  -5 -10   3    5.11    3.01
  -5 -10   2    4.81    2.20
  -5 -10   2    3.21    1.99
  -5  10   1    3.00    1.83
  -5 -10   1   -0.57    1.82
  -5 -10   1    3.04    1.73
  -5  10   0    1.18    1.50
  -5 -10   0    3.26    2.03
  -5 -10   0    5.78    2.10
  -5 -10  -1   -0.02    1.80
   5 -10   1    1.09    1.58
  -5 -10  -2    3.23    2.09
   5 -10   2    4.46    1.86
   5 -10   3    0.83    2.05
   5 -10   4    3.59    2.34
   5 -10   5    9.98    3.17
   5 -10   6   11.47    3.20
   5 -11   4   -0.61    2.15
  -6   0  14   60.94    6.53
  -6   0  13    0.17    1.68
  -6   0  12    3.99    2.19
  -6   0  11   -1.22    1.68
  -6   0  10  361.46   14.86
  -6   0   9   -0.55    1.49
  -6   0   8    3.62    1.50
  -6   0   8    2.99    1.48
  -6   0   7    0.82    1.18
  -6   0   6  580.16   17.45
  -6   0   6  564.09   16.10
  -6   0   5    0.63    1.06
  -6   0   5    0.49    0.84
  -6   0   4    1.73    0.94
  -6   0   4    0.99    0.73
  -6   0   3    0.07    0.82
  -6   0   3    0.32    0.84
   6   0  -2  602.23   16.61
  -6   0   2  615.97   17.64
  -6   0   1    0.90    1.25
   6   0  -1    0.50    0.77
  -6   0   1   -0.63    0.78
   6   0  -1    2.37    1.07
  -6   0   0  101.57    5.58
  -6   0  -1    4.53    1.53
  -6   0  -2  194.90    8.82
  -6   0  -3   -0.35    0.98
  -6   0  -4  201.73    9.31
   6   0   4  198.66    7.04
  -6   0  -5    1.28    1.25
   6   0   5    0.34    0.67
   6   0   6    3.30    1.03
   6   0   6    1.22    1.20
   6   0   7   -0.09    0.76
   6   0   7    0.37    1.20
   6   0   8  392.07   12.81
   6   0   8  391.01   14.79
   6   0   9   -0.37    0.90
   6   0   9   -0.84    1.06
   6   0  10   38.34    3.65
   6   0  10   38.33    4.47
   6   0  11    3.13    1.53
   6   0  11    0.92    1.20
   6   0  12  403.99   16.76
   6   0  13    3.45    2.26
   6   0  14   76.61    7.29
  -6  -1  13   12.03    3.14
  -6  -1  12    8.10    2.58
  -6  -1  12    3.35    1.79
  -6  -1  11  103.99    6.47
  -6  -1  11  105.80    7.65
  -6  -1  10    2.69    1.75
  -6  -1  10    0.22    0.94
  -6  -1   9   27.74    3.51
  -6  -1   9   25.22    3.00
  -6  -1   8    0.96    1.21
  -6  -1   8    1.26    1.17
  -6  -1   7  106.46    5.90
  -6   1   7  112.89    5.01
  -6  -1   7  122.38    6.81
  -6  -1   6    5.26    1.50
  -6  -1   6    4.68    1.34
  -6   1   6    7.58    1.97
  -6  -1   6    6.17    1.52
  -6   1   6    7.17    1.23
  -6  -1   5   46.16    3.51
  -6   1   5   47.55    3.92
  -6   1   5   49.52    2.92
  -6  -1   5   46.92    3.64
  -6  -1   5   44.21    3.55
  -6  -1   4   21.26    2.39
  -6   1   4   23.29    2.70
  -6   1   4   22.87    1.92
  -6  -1   4   22.52    2.48
  -6  -1   3   78.54    4.64
  -6   1   3   70.67    4.64
   6   1  -3   77.43    4.21
  -6  -1   3   68.71    4.26
  -6   1   2   50.22    3.76
   6   1  -2   49.23    3.07
  -6  -1   2   51.88    3.67
   6  -1  -2   47.82    3.05
   6   1  -1   68.18    3.52
  -6   1   1   72.20    4.56
   6  -1  -1   63.28    3.74
  -6   1   1   68.15    4.27
  -6  -1   1   71.56    4.73
  -6   1   0   81.64    4.88
   6  -1   0   85.20    4.56
  -6   1   0   87.88    4.97
  -6  -1   0   91.63    5.44
   6   1   0   94.11    3.91
  -6  -1  -1   34.13    3.28
  -6   1  -2  112.37    6.43
  -6  -1  -2  117.26    6.53
  -6   1  -3   88.59    5.64
  -6  -1  -3   81.60    5.48
   6   1   3   96.58    3.73
  -6   1  -4  134.14    7.29
  -6  -1  -4  136.21    7.34
   6   1   4  128.85    4.70
   6  -1   5    8.74    1.58
   6   1   5    7.77    1.15
  -6   1  -5    9.40    2.15
  -6  -1  -5    6.19    1.88
   6  -1   6  113.30    7.01
   6   1   6  115.93    4.91
   6   1   6  120.98    6.76
   6  -1   6  120.70    5.89
   6   1   7   91.36    4.55
   6  -1   7  107.95    6.90
   6   1   7   90.19    6.01
   6  -1   7   94.34    5.35
   6   1   8   98.67    5.01
   6   1   8   98.12    6.34
   6  -1   8   93.19    6.67
   6  -1   8   97.09    5.67
   6  -1   9    4.55    1.65
   6  -1   9    3.48    1.91
   6   1   9    1.25    1.07
   6   1   9    0.50    0.99
   6   1  10   62.82    4.42
   6   1  10   60.52    5.25
   6  -1  10   61.08    5.70
   6  -1  10   64.40    5.03
   6  -1  11   81.73    6.01
   6   1  11   88.66    6.54
   6  -1  11   74.63    6.62
   6  -1  12   36.59    4.18
   6   1  12   41.60    4.65
   6  -1  12   41.56    5.24
   6  -1  13   -0.39    1.71
   6  -1  13    0.12    1.71
   6  -1  14   19.57    3.97
  -6  -2  13   90.02    7.89
  -6  -2  12  561.55   21.03
  -6  -2  11  117.89    8.14
  -6  -2  11  109.72    6.32
  -6  -2  10  115.64    7.58
  -6  -2  10  114.79    6.24
  -6  -2   9  198.20    9.73
  -6  -2   9  170.89    7.89
  -6  -2   8 1216.58   31.91
  -6  -2   8 1147.46   29.57
  -6   2   8 1145.23   26.89
  -6  -2   7  276.32   11.10
  -6  -2   7  286.78   10.24
  -6   2   7  271.02    7.90
  -6  -2   6  209.85    8.35
  -6   2   6  207.09    6.17
  -6  -2   6  204.95    8.88
  -6  -2   5  311.60   10.72
  -6   2   5  316.78   11.99
  -6  -2   5  313.80   11.48
  -6  -2   5  313.27   11.06
  -6  -2   4 1506.26   37.40
  -6   2   4 1575.78   38.97
  -6  -2   4 1547.63   38.57
  -6  -2   4 1623.50   37.45
  -6   2   3  251.69    9.97
   6   2  -3  250.61    8.49
  -6  -2   3  248.24    9.73
  -6   2   2  130.85    6.65
   6   2  -2  141.64    5.38
  -6  -2   2  133.04    6.66
   6  -2  -2  128.24    5.01
  -6   2   2  135.09    5.98
  -6   2   1  288.56   10.79
   6   2  -1  313.78    8.72
   6  -2  -1  285.43    9.11
  -6  -2   1  297.69   11.01
  -6   2   1  306.14   10.11
  -6  -2   1  312.49   11.56
  -6   2   0 1314.59   33.82
   6   2   0 1393.98   30.23
   6  -2   0 1336.32   32.18
  -6   2   0 1343.07   32.76
  -6  -2   0 1342.08   34.75
  -6   2  -1  202.50    8.49
   6   2   1  214.47    5.72
  -6  -2  -1  195.73    9.03
   6   2   2   25.55    1.30
  -6   2  -2   35.38    3.39
  -6  -2  -2   32.19    3.31
   6   2   2   30.70    1.31
  -6  -2  -2   28.65    3.17
   6   2   3   68.50    2.22
  -6   2  -3   73.73    5.05
  -6  -2  -3   80.63    5.28
   6   2   4  525.47   12.23
  -6  -2  -4  543.28   17.42
  -6   2  -4  537.32   17.46
   6  -2   5   49.89    3.85
   6   2   5   46.51    2.22
   6  -2   5   52.37    4.64
  -6   2  -5   49.33    4.45
  -6  -2  -5   46.97    4.38
   6   2   6    5.07    0.93
   6  -2   6    1.09    1.52
   6  -2   6    2.80    1.19
   6   2   7   22.66    1.96
   6  -2   7   27.41    3.04
   6  -2   7   23.74    3.42
   6   2   7   26.26    3.20
   6   2   8  127.84    5.45
   6  -2   8  124.54    8.01
   6   2   8  136.01    7.25
   6  -2   8  123.43    6.95
   6  -2   9    3.15    1.98
   6   2   9    1.73    1.35
   6  -2   9    2.44    1.59
   6   2  10   42.14    4.18
   6  -2  10   32.87    3.74
   6  -2  10   37.31    4.75
   6  -2  11    1.35    1.72
   6   2  11   -1.30    1.32
   6  -2  11    3.03    1.91
   6  -2  12   17.24    3.19
   6  -2  12   28.05    4.47
   6  -2  13    5.70    2.79
   6  -2  13    2.25    1.83
   6  -2  14   39.07    4.84
  -6  -3  13    3.08    2.13
  -6  -3  12   52.55    5.63
  -6  -3  11   78.17    6.60
  -6  -3  10   71.22    5.96
  -6  -3  10   64.44    4.33
  -6  -3   9   23.56    2.49
  -6  -3   9   17.68    2.89
  -6  -3   8   80.84    4.75
  -6  -3   8   86.51    5.94
  -6  -3   7  132.65    6.13
  -6  -3   7  137.88    7.26
  -6  -3   6   71.80    4.86
  -6  -3   5  107.01    5.70
  -6  -3   5  102.78    6.35
  -6  -3   4   71.37    4.24
  -6   3   4   69.55    5.04
  -6  -3   4   66.74    5.02
  -6   3   3  203.38    9.00
  -6  -3   3  213.72    9.29
   6   3  -3  206.42    7.35
  -6   3   3  188.77    7.25
  -6  -3   3  209.85    7.48
  -6   3   2   39.91    3.63
  -6  -3   2   33.90    3.48
   6  -3  -2   34.49    2.06
   6   3  -2   39.87    2.56
  -6   3   2   36.77    2.77
  -6   3   1  249.82    9.99
   6  -3  -1  241.31    7.86
  -6  -3   1  265.71   10.59
  -6   3   1  255.30    8.62
   6   3  -1  263.23    7.34
  -6  -3   1  259.81   10.74
  -6   3   0   23.33    2.77
  -6  -3   0   28.46    3.15
   6   3   0   24.86    1.33
  -6  -3   0   22.07    2.90
  -6   3  -1  224.35    9.07
  -6   3  -1  216.76    9.26
  -6  -3  -1  227.73    9.33
  -6  -3  -1  213.18    9.80
  -6   3  -2    6.33    1.55
  -6  -3  -2    5.82    1.44
  -6  -3  -2    7.81    1.84
  -6   3  -3  326.34   12.47
  -6  -3  -3  364.32   12.92
  -6  -3  -4    5.56    1.75
  -6   3  -4    2.25    1.33
   6  -3   5  135.05    7.97
   6  -3   6    1.93    1.32
   6  -3   6   -0.24    1.29
   6  -3   7  300.91   13.20
   6   3   7  274.11   10.65
   6  -3   7  295.36   11.72
   6  -3   8    0.17    1.15
   6  -3   8   -0.75    1.70
   6   3   8    3.44    1.49
   6   3   9   58.87    4.60
   6  -3   9   53.13    5.59
   6  -3   9   49.88    4.67
   6  -3  10    3.48    2.04
   6  -3  10   -0.15    1.34
   6  -3  11  151.42   10.09
   6  -3  11  144.07    8.87
   6  -3  12    0.04    1.41
   6  -3  12    5.59    2.79
   6  -3  13   10.02    2.59
   6  -3  13   11.75    3.42
   6  -3  14    2.32    2.32
  -6  -4  13    9.63    2.83
  -6  -4  12   47.97    5.41
  -6  -4  11   49.05    5.21
  -6  -4  10   56.56    5.36
  -6  -4   9   88.29    6.38
  -6  -4   8  109.07    6.86
  -6  -4   7  116.44    6.70
  -6  -4   6  141.26    7.09
  -6  -4   5  152.29    7.07
  -6  -4   5  151.18    8.37
  -6  -4   4  198.50    7.69
  -6  -4   4  187.35    9.34
  -6  -4   3  123.51    5.43
  -6   4   3  126.17    7.06
  -6  -4   3  129.95    7.35
   6   4  -3  120.48    5.21
  -6   4   3  121.67    4.94
  -6   4   2   84.03    5.52
   6  -4  -2   74.75    3.00
  -6  -4   2   92.34    6.13
  -6   4   2   85.76    3.85
   6   4  -2   83.26    3.82
  -6  -4   2   83.26    3.87
  -6   4   1   74.42    5.19
  -6  -4   1   94.02    6.05
  -6  -4   1   92.30    6.10
  -6   4   0  230.96    9.58
  -6  -4   0  223.30   10.15
  -6  -4   0  246.61   10.70
  -6   4  -1   15.08    2.30
  -6  -4  -1   16.80    2.72
  -6   4  -1   13.25    2.07
  -6  -4  -1   12.57    1.99
  -6  -4  -1   11.30    2.19
  -6   4  -2   25.71    2.84
  -6   4  -2   21.13    2.77
  -6  -4  -2   29.65    3.16
   6  -4   2   26.07    2.43
  -6  -4  -2   29.62    3.49
  -6   4  -3    6.51    1.72
  -6  -4  -3    7.92    1.86
   6  -4   4  330.64   13.42
  -6   4  -4  308.51   12.40
  -6  -4  -4  325.63   12.54
   6  -4   5   19.90    3.10
   6  -4   6    3.87    1.53
   6  -4   6    6.71    2.18
   6   4   7   42.66    3.45
   6  -4   7   40.13    4.71
   6  -4   7   43.61    4.52
   6  -4   8  248.95   12.33
   6   4   8  232.85    9.19
   6  -4   8  225.90   10.82
   6  -4   9   74.41    6.78
   6  -4   9   74.70    6.06
   6  -4  10    3.89    2.39
   6  -4  10    4.40    2.23
   6  -4  11  101.81    8.48
   6  -4  11  100.14    7.49
   6  -4  12  135.47   10.15
   6  -4  12  117.98    8.66
   6  -4  13   94.85    7.93
  -6  -5  12    2.32    2.09
  -6  -5  11   70.34    6.42
  -6  -5  10    1.92    1.59
  -6  -5   9    9.48    2.51
  -6  -5   8    5.45    2.24
  -6  -5   7   40.65    3.96
  -6  -5   6    1.04    0.90
  -6  -5   5    4.78    1.49
  -6  -5   5    5.58    2.13
  -6  -5   4    4.91    1.27
  -6  -5   4    6.76    2.19
  -6   5   4    6.39    0.98
  -6  -5   3    3.59    0.98
  -6  -5   3    3.69    2.41
  -6   5   2    6.58    2.02
  -6  -5   2    3.11    0.93
   6  -5  -2    3.46    0.53
  -6  -5   2    6.11    1.91
  -6  -5   1    2.66    1.59
  -6  -5   1    0.38    0.41
  -6   5   1   -0.11    1.16
  -6  -5   1    0.50    1.12
  -6   5   0   13.61    2.27
  -6  -5   0   12.07    2.36
  -6   5   0   14.31    2.16
  -6  -5   0   12.91    2.54
  -6   5  -1   13.12    2.24
  -6  -5  -1   11.64    2.53
  -6   5  -1    8.99    1.69
  -6  -5  -1   14.88    2.20
  -6  -5  -1   12.98    2.52
  -6   5  -2   20.30    2.62
  -6   5  -2   15.17    2.46
  -6  -5  -2   17.97    2.53
   6  -5   2   19.97    1.99
  -6  -5  -2   19.91    2.99
  -6   5  -3    3.39    1.40
  -6  -5  -3    1.99    1.28
   6  -5   3    1.67    1.46
   6  -5   3    1.93    1.07
  -6  -5  -4   39.04    3.86
   6  -5   4   34.06    4.05
   6  -5   5   39.63    4.55
   6  -5   6   31.44    3.94
   6   5   6   35.66    2.91
   6  -5   6   41.29    4.84
   6  -5   7    4.17    2.59
   6  -5   7    1.42    1.33
   6  -5   8   51.46    5.69
   6  -5   8   52.96    5.21
   6  -5   9   41.25    4.83
   6  -5   9   37.70    5.09
   6  -5  10   48.21    5.26
   6  -5  10   36.34    5.13
   6  -5  11    2.63    2.59
   6  -5  11    8.22    2.83
   6  -5  12   44.90    5.52
  -6  -6  12   27.38    4.28
  -6  -6  11  244.03   12.71
  -6  -6  10   56.88    5.67
  -6  -6   9  364.95   14.93
  -6  -6   8   31.02    3.91
  -6  -6   7  458.73   16.07
  -6  -6   6  156.72    7.87
  -6  -6   6  159.54    9.66
  -6  -6   5  439.52   14.44
  -6  -6   5  432.98   17.21
  -6  -6   4   40.97    3.37
  -6  -6   4   44.57    4.99
  -6  -6   3  564.94   15.81
  -6  -6   3  567.83   19.99
  -6  -6   2  163.14    6.26
  -6   6   2  184.72    9.16
  -6  -6   2  174.52    9.58
  -6  -6   1  304.68    8.65
  -6   6   1  327.48   12.58
  -6  -6   1  293.82   13.14
  -6  -6   1  306.57   13.04
  -6   6   0   35.58    3.68
  -6  -6   0   27.58    3.73
  -6   6   0   32.29    3.24
  -6  -6   0   29.57    3.09
  -6  -6   0   29.71    3.74
  -6   6  -1  347.73   12.78
  -6  -6  -1  328.51   14.13
  -6   6  -1  334.74   12.17
  -6  -6  -1  342.94   12.14
  -6  -6  -1  337.35   13.98
  -6   6  -2  135.31    7.15
   6  -6   2  143.07    8.34
  -6   6  -2  114.13    6.57
  -6  -6  -2  141.25    7.14
  -6  -6  -2  131.50    8.07
  -6   6  -3  125.81    6.72
   6  -6   3  134.84    8.28
  -6   6  -3  118.83    6.79
  -6  -6  -3  118.53    6.75
   6  -6   4   57.46    5.56
   6  -6   5  100.19    7.50
   6  -6   6   80.62    6.62
   6  -6   6   97.86    7.60
   6  -6   7   10.54    2.75
   6  -6   7    9.43    2.95
   6  -6   8   43.90    5.45
   6  -6   8   50.69    5.32
   6  -6   9    7.20    2.59
   6  -6   9   11.20    3.35
   6  -6  10   21.04    3.81
   6  -6  10   15.78    3.49
   6  -6  11   -0.74    1.70
  -6  -7  11    1.60    1.98
  -6  -7  10   83.06    6.92
  -6  -7   9   31.70    4.07
  -6  -7   8  122.04    7.67
  -6  -7   7    4.82    1.68
  -6  -7   6  144.01    7.76
  -6  -7   6  175.84   10.65
  -6  -7   5   16.61    3.41
  -6  -7   5   19.20    2.67
  -6  -7   4  202.51    8.45
  -6  -7   4  211.71   11.56
  -6  -7   3    0.86    1.51
  -6  -7   3    0.46    0.89
  -6   7   2  207.71   10.29
  -6  -7   2  194.47   10.95
  -6  -7   2  219.36   11.02
  -6  -7   1    2.85    1.63
  -6   7   1    3.03    1.67
  -6  -7   1    1.11    1.55
  -6   7   1    3.24    1.46
  -6  -7   1    1.67    1.16
  -6   7   0  224.44   10.26
  -6  -7   0  225.34   11.63
   6  -7   0  234.51   10.99
  -6   7   0  225.44    9.22
  -6  -7   0  216.51    9.09
  -6  -7   0  227.85   11.31
  -6   7  -1    1.46    1.32
  -6  -7  -1    3.33    1.98
  -6   7  -1    2.10    1.12
  -6  -7  -1    0.89    1.01
   6  -7   1    1.46    1.72
  -6  -7  -1    1.76    1.51
  -6   7  -2  166.76    8.44
  -6  -7  -2  179.45   10.31
   6  -7   2  179.30    9.81
  -6   7  -2  171.17    8.11
  -6  -7  -2  181.09    8.31
  -6  -7  -2  180.06    9.91
  -6   7  -3   35.62    3.67
   6  -7   3   42.92    4.98
   6  -7   4  161.25    9.67
   6  -7   5    8.03    2.38
   6  -7   6   98.58    7.70
   6  -7   6  106.24    8.25
   6  -7   7   71.48    7.00
   6  -7   7   72.84    6.71
   6  -7   8   81.84    7.60
   6  -7   8   73.00    6.82
   6  -7   9    7.86    2.77
   6  -7   9   11.07    2.94
  -6  -8  10    3.02    2.14
  -6  -8   9    4.48    2.21
  -6  -8   8  174.15    9.69
  -6  -8   7    1.34    2.16
  -6  -8   7    2.18    1.62
  -6  -8   6   19.82    4.07
  -6  -8   6   14.16    2.47
  -6  -8   5    1.05    2.04
  -6  -8   4  259.22   13.56
  -6  -8   3   14.20    3.18
  -6  -8   2    6.73    2.26
  -6   8   2    6.54    2.19
  -6  -8   2    6.00    2.27
   6  -8  -2    8.28    2.17
  -6   8   1    5.74    2.26
  -6  -8   1    3.84    2.19
   6  -8  -1    1.94    1.71
  -6  -8   1    3.22    1.63
  -6  -8   0  228.93   12.30
  -6   8   0  231.01   10.70
   6  -8   0  223.22   11.03
  -6  -8   0  233.90   11.84
  -6   8  -1   31.23    3.64
  -6  -8  -1   45.77    5.25
   6  -8   1   46.33    4.84
  -6  -8  -1   40.55    4.66
  -6   8  -2    2.65    1.25
  -6  -8  -2    2.03    1.46
   6  -8   2    1.34    1.59
  -6  -8  -2   -0.02    1.32
  -6   8  -3   31.26    3.43
   6  -8   3   32.93    4.31
   6  -8   4  107.45    8.05
   6  -8   5   95.73    7.75
   6  -8   6   17.90    3.71
   6  -8   6   20.59    4.04
   6  -8   7   45.94    5.77
   6  -8   7   56.07    6.14
   6  -8   8   24.80    4.36
   6  -8   8   21.47    4.84
  -6  -9   6   12.49    3.42
  -6  -9   5   14.75    3.50
  -6  -9   4   12.16    3.35
  -6  -9   3   22.90    3.92
  -6  -9   3   21.68    4.20
  -6  -9   2    1.87    1.96
  -6   9   2    5.78    2.07
  -6  -9   2    6.56    2.83
   6  -9  -2    4.94    1.57
  -6   9   1   13.72    2.85
  -6  -9   1    7.11    2.65
   6  -9  -1   12.57    2.62
  -6  -9   1    8.94    2.39
  -6   9   0    6.73    2.14
  -6  -9   0    8.12    2.90
   6  -9   0    3.87    1.88
  -6  -9   0    4.78    1.98
  -6   9  -1    0.78    1.09
  -6  -9  -1   -0.19    1.54
   6  -9   1   -1.11    1.50
  -6  -9  -1   -0.32    1.52
  -6   9  -2    3.07    1.64
  -6  -9  -2    5.30    2.10
   6  -9   2    4.89    2.37
   6  -9   3    4.30    2.41
   6  -9   4    4.06    2.36
   6  -9   5   17.65    3.68
   6  -9   6    0.73    2.05
  -6 -10   4   56.84    6.09
  -6 -10   3   14.81    3.47
  -6  10   2  212.73   11.52
  -6 -10   2  236.26   13.66
  -6 -10   2  223.20   12.40
  -6  10   1    6.33    2.09
  -6 -10   1    9.98    3.03
  -6 -10   1    8.55    2.84
  -6 -10   0   12.49    3.56
  -6 -10   0    7.78    2.65
  -6 -10  -1    7.69    2.74
   6 -10   1   11.24    2.94
  -6 -10  -1    6.90    2.34
  -6 -10  -2  157.51   10.96
   6 -10   2  160.06   10.01
   6 -10   3    1.21    1.71
   6 -10   4   -0.34    1.89
   6 -10   5    2.02    2.10
  -6 -11   4    4.04    3.03
  -6  11   3   74.53    7.15
  -6 -11   3   83.75    7.75
  -7   0  13    3.23    1.94
  -7   0  12    0.73    1.25
  -7   0  11   21.90    3.27
  -7   0  10   -0.57    1.28
  -7   0   9    5.45    1.61
  -7   0   9    6.07    1.66
  -7   0   8   -0.30    0.96
  -7   0   8   -0.34    0.91
  -7   0   7    9.36    2.03
  -7   0   7   12.02    1.83
  -7   0   6   -0.20    1.11
  -7   0   6    0.16    0.86
  -7   0   5    2.53    1.36
  -7   0   5    0.51    0.83
  -7   0   4   -1.10    0.96
  -7   0   4    0.67    0.87
  -7   0   3    6.09    1.51
  -7   0   2   -0.11    0.90
  -7   0   2   -1.01    0.90
  -7   0   1   16.87    2.44
  -7   0   0   -0.82    1.02
  -7   0  -1   13.78    2.32
  -7   0  -2    1.25    1.46
  -7   0  -3   88.39    6.07
   7   0   4    1.08    0.89
  -7   0  -4    0.96    1.21
  -7   0  -5   29.43    3.72
   7   0   5   34.77    2.70
   7   0   6    0.03    0.65
   7   0   7  204.45   10.12
   7   0   7  193.32    7.77
   7   0   8    0.63    0.76
   7   0   8    0.40    1.31
   7   0   9   49.55    3.98
   7   0   9   46.53    4.98
   7   0  10    1.88    2.06
   7   0  11  219.72   11.67
   7   0  12   -1.50    1.58
   7   0  13   45.51    5.67
  -7  -1  13   46.57    5.71
  -7  -1  12  118.38    7.38
  -7  -1  12  124.57    8.83
  -7  -1  11   44.11    4.30
  -7  -1  11   51.43    5.46
  -7  -1  10    4.14    2.04
  -7  -1  10    7.84    2.18
  -7  -1   9    6.05    2.04
  -7  -1   9    7.99    1.85
  -7   1   9    5.64    1.82
  -7  -1   8  275.15   11.09
  -7   1   8  280.38   11.94
  -7   1   8  267.30    9.29
  -7  -1   8  266.84   10.85
  -7  -1   8  291.34   12.16
  -7  -1   7   -0.87    1.00
  -7   1   7    0.41    1.08
  -7   1   7   -0.54    0.81
  -7  -1   7    1.02    1.21
  -7  -1   6    0.72    0.96
  -7   1   6    5.19    1.69
  -7   1   6    1.74    0.84
  -7  -1   6    2.41    1.25
  -7  -1   5   44.36    3.87
  -7   1   5   46.11    4.08
  -7   1   5   39.79    2.85
  -7  -1   5   36.83    3.42
  -7  -1   4  536.81   16.61
  -7   1   4  547.21   17.22
  -7  -1   4  521.04   16.24
  -7  -1   3   66.88    4.60
  -7   1   3   65.98    4.82
  -7  -1   3   72.77    4.66
  -7   1   2   20.81    2.61
   7   1  -2   21.62    2.21
  -7   1   2   22.07    2.73
  -7  -1   2   22.36    2.61
  -7   1   1  238.48    9.66
   7   1  -1  223.44    7.83
  -7   1   1  228.26    9.37
  -7  -1   1  237.11   10.04
   7   1   0  594.20   15.31
  -7   1   0  572.10   17.61
  -7  -1   0  567.62   18.33
  -7  -1  -1  263.77   10.74
   7   1   1  247.40    7.80
  -7   1  -2   36.56    3.83
  -7  -1  -2   37.18    3.92
  -7   1  -3  251.79   11.19
  -7  -1  -3  292.73   11.82
  -7   1  -4  628.61   20.61
  -7  -1  -4  624.12   20.56
   7   1   4  650.50   16.05
   7   1   5  245.41    7.77
  -7   1  -5  253.58   11.52
  -7  -1  -5  254.14   11.56
   7  -1   5  255.58    9.41
   7   1   6   15.64    1.64
   7  -1   6   18.57    2.99
   7  -1   6   13.70    2.02
   7   1   7  180.81    6.92
   7  -1   7  200.67   10.23
   7   1   7  189.45    9.44
   7  -1   7  183.68    8.08
   7  -1   8  403.15   16.13
   7   1   8  393.96   15.23
   7  -1   8  400.82   13.67
   7  -1   9   91.15    7.03
   7   1   9   86.87    6.42
   7  -1   9   96.08    5.97
   7  -1  10   18.77    2.83
   7   1  10   19.22    3.13
   7  -1  10   17.95    3.52
   7   1  11   49.05    5.10
   7  -1  11   47.54    5.31
   7   1  12  177.82   10.28
   7  -1  12  169.33   10.85
   7  -1  13   30.20    5.16
  -7  -2  13   21.18    3.87
  -7  -2  12   44.03    5.35
  -7  -2  11  161.63    8.24
  -7  -2  11  184.23   10.44
  -7  -2  10   38.48    3.73
  -7  -2  10   42.32    4.61
  -7  -2   9   89.53    5.67
  -7  -2   9   88.83    6.53
  -7  -2   8   60.07    4.57
  -7  -2   8   65.76    5.30
  -7  -2   7  260.96   10.35
  -7   2   7  247.65   11.42
  -7  -2   7  257.95   11.08
  -7  -2   7  291.29   11.43
  -7  -2   6   59.06    4.27
  -7   2   6   68.12    5.31
  -7  -2   6   62.30    4.89
  -7  -2   6   63.47    4.69
  -7  -2   5  209.23    8.83
  -7   2   5  220.55    9.92
  -7  -2   5  212.44    9.42
  -7   2   4   61.16    4.82
  -7  -2   4   65.95    4.78
  -7   2   3  273.50   10.96
  -7  -2   3  244.42   10.28
  -7   2   3  271.90   10.03
  -7   2   2   47.13    4.05
   7   2  -2   50.18    3.15
  -7  -2   2   47.26    4.07
   7  -2  -2   49.21    3.10
  -7   2   2   45.39    3.54
  -7   2   1  284.91   11.06
   7   2  -1  278.40    8.41
  -7  -2   1  282.78   11.02
   7  -2  -1  247.54    8.96
  -7   2   1  279.31   10.15
  -7  -2   1  272.41   11.30
  -7   2   0   31.76    3.27
   7   2   0   35.86    2.16
  -7  -2   0   40.04    3.98
   7   2   1  166.05    5.08
  -7  -2  -1  166.15    8.52
   7   2   2   15.05    1.09
  -7   2  -2   11.87    2.23
  -7  -2  -2   16.98    2.78
  -7  -2  -2   13.39    2.44
   7   2   3  201.40    5.19
  -7   2  -3  205.32    9.73
  -7  -2  -3  213.39    9.75
   7   2   3  187.74    5.29
   7   2   4    8.35    0.77
  -7   2  -4    5.96    1.93
  -7  -2  -4    7.81    2.11
   7   2   5   37.58    1.90
  -7   2  -5   44.00    4.56
  -7  -2  -5   36.81    4.17
   7  -2   6    2.65    1.35
   7  -2   6    1.72    1.47
   7   2   7  115.88    6.84
   7  -2   7  103.50    6.21
   7  -2   7  104.98    7.50
   7  -2   8    0.77    1.44
   7  -2   8    1.48    1.75
   7   2   8    1.78    1.44
   7  -2   9    0.90    1.49
   7   2   9    3.20    1.85
   7  -2   9    3.98    1.81
   7  -2  10    4.52    1.85
   7   2  10    1.85    1.43
   7  -2  10    4.66    2.24
   7  -2  11   40.34    4.55
   7  -2  11   31.07    4.62
   7  -2  12    1.54    1.73
   7  -2  12    4.09    2.58
   7  -2  13   10.02    3.49
  -7  -3  13    3.52    2.24
  -7  -3  12  305.10   14.73
  -7  -3  11   12.55    2.97
  -7  -3  10    2.48    1.30
  -7  -3   9    7.60    1.61
  -7  -3   9   13.12    2.65
  -7  -3   8  247.96   11.05
  -7  -3   8  240.90    9.65
  -7  -3   7   66.44    5.45
  -7  -3   7   65.96    5.05
  -7  -3   6   24.71    2.94
  -7   3   6   26.96    3.57
  -7  -3   6   24.69    3.47
  -7   3   5   76.45    5.69
  -7  -3   5   66.04    5.27
  -7  -3   5   66.35    4.51
  -7   3   4  104.77    6.67
  -7  -3   4  127.95    7.22
  -7  -3   4  103.57    5.47
  -7   3   3  257.24   10.89
  -7  -3   3  235.82   10.51
   7   3  -3  258.87    8.68
  -7   3   3  252.82    9.22
  -7   3   2  165.04    8.23
  -7  -3   2  160.70    8.27
   7  -3  -2  155.95    5.72
   7   3  -2  166.14    6.09
  -7   3   2  170.70    7.00
  -7   3   1  190.18    8.84
  -7  -3   1  187.32    9.05
   7  -3  -1  166.62    6.58
   7   3  -1  191.40    6.02
  -7   3   1  195.24    7.62
  -7  -3   1  196.37    9.53
  -7   3   0   35.19    3.58
   7  -3   0   29.48    2.60
   7   3   0   33.07    1.67
  -7  -3   0   31.98    3.71
  -7   3  -1  258.66   10.63
  -7   3  -1  263.94   11.09
  -7  -3  -1  270.91   11.13
  -7  -3  -1  261.44   11.54
  -7   3  -2  273.66   11.64
  -7  -3  -2  306.38   12.11
  -7  -3  -2  297.43   12.49
  -7   3  -3  282.62   11.97
  -7  -3  -3  302.49   12.20
  -7   3  -4    4.57    1.86
  -7  -3  -4    9.89    2.51
   7  -3   5  201.76   10.39
  -7   3  -5  190.72    9.93
  -7  -3  -5  195.16   10.06
   7  -3   6  233.95   11.63
   7  -3   6  237.78   10.41
   7  -3   7  150.80    9.29
   7   3   7  158.21    7.96
   7  -3   7  149.09    8.11
   7  -3   8    5.97    1.94
   7  -3   8    8.72    2.83
   7   3   8    5.18    1.62
   7  -3   9  118.97    8.60
   7   3   9  104.26    6.57
   7  -3   9  106.85    7.07
   7  -3  10   95.86    8.08
   7  -3  10  117.90    7.62
   7  -3  11   53.87    5.49
   7  -3  11   38.42    5.45
   7  -3  12   11.28    2.82
   7  -3  12   16.76    4.04
   7  -3  13   14.37    3.38
  -7  -4  12   -0.51    1.57
  -7  -4  11   47.13    5.23
  -7  -4  10    1.24    1.66
  -7  -4   9    4.43    2.06
  -7  -4   8    1.25    1.18
  -7  -4   7   26.25    3.15
  -7  -4   7   20.99    3.48
  -7  -4   6    2.42    1.37
  -7  -4   6    1.61    1.61
  -7  -4   5    2.25    1.16
  -7   4   5    2.50    1.81
  -7  -4   5    3.07    2.02
  -7   4   4    0.84    0.72
  -7  -4   4    0.55    0.87
  -7   4   4    1.19    1.13
  -7  -4   4    3.51    1.86
  -7  -4   3    3.03    1.13
  -7   4   3    1.50    1.38
   7   4  -3    2.57    1.25
  -7  -4   3    0.38    1.48
  -7   4   3    3.15    0.98
  -7   4   2    0.96    2.05
  -7  -4   2   -0.94    1.34
   7   4  -2    2.10    0.94
  -7  -4   1    4.92    1.78
   7   4  -1    3.75    0.73
  -7   4   1    2.67    1.40
   7  -4  -1    1.52    0.64
  -7  -4   1    4.69    1.77
  -7   4   0    9.55    2.06
  -7  -4   0   12.40    2.56
  -7  -4   0   13.04    2.61
  -7   4  -1    2.71    1.56
  -7   4  -1    5.56    1.77
  -7  -4  -1    0.48    1.33
  -7  -4  -1    3.62    1.68
  -7   4  -2   22.83    2.90
  -7   4  -2   16.84    2.61
  -7  -4  -2   16.30    2.62
  -7  -4  -2   14.72    2.82
  -7   4  -3    9.83    2.16
  -7  -4  -3    9.33    2.32
  -7   4  -4   50.45    4.74
  -7  -4  -4   49.04    4.75
   7  -4   4   49.78    4.96
   7  -4   5    1.73    1.31
   7  -4   6   50.50    4.72
   7  -4   6   56.58    5.60
   7  -4   7   26.75    3.49
   7  -4   7   25.97    4.28
   7   4   7   33.44    3.36
   7  -4   8   74.61    6.88
   7  -4   8   79.07    6.15
   7  -4   9    0.78    1.25
   7  -4   9    4.41    2.01
   7  -4  10   67.41    6.97
   7  -4  10   73.24    6.32
   7  -4  11   40.21    4.95
   7  -4  11   43.83    5.79
   7  -4  12   69.83    6.73
  -7  -5  12   11.32    2.76
  -7  -5  11   31.94    4.68
  -7  -5  10   45.92    5.06
  -7  -5   9   13.50    2.85
  -7  -5   8  112.10    7.12
  -7  -5   7   31.40    3.54
  -7  -5   7   31.31    4.36
  -7  -5   6    2.02    1.35
  -7  -5   6    0.20    1.43
  -7  -5   5   19.72    2.55
  -7  -5   5   18.54    3.34
  -7  -5   4  418.67   13.03
  -7   5   4  403.08   15.71
  -7  -5   4  408.38   16.22
  -7   5   3   28.23    3.71
  -7  -5   3   31.91    3.97
  -7  -5   3   29.09    2.51
  -7  -5   2   24.80    3.59
  -7   5   2   31.41    3.80
  -7  -5   2   30.10    3.85
  -7  -5   2   31.40    2.25
  -7   5   1   30.26    3.69
  -7  -5   1   41.77    4.65
  -7  -5   1   43.59    4.75
  -7   5   0  847.11   25.17
  -7  -5   0  859.37   26.68
  -7   5   0  884.09   25.14
  -7  -5   0  881.98   25.09
  -7  -5   0  877.97   26.80
  -7   5  -1   33.53    3.70
  -7   5  -1   37.04    3.95
  -7  -5  -1   29.71    3.48
  -7  -5  -1   29.19    3.90
  -7   5  -2   83.33    5.69
  -7   5  -2   89.58    6.06
  -7  -5  -2   94.75    6.20
  -7  -5  -2   87.30    6.76
   7  -5   3   58.48    5.62
  -7   5  -3   46.20    4.77
  -7  -5  -3   53.36    4.73
   7  -5   4  796.45   25.36
  -7   5  -4  732.26   23.53
  -7  -5  -4  787.62   23.87
   7  -5   5   37.34    4.79
   7  -5   6  100.94    7.22
   7  -5   6  102.36    7.95
   7  -5   7   56.83    6.15
   7  -5   7   55.43    5.71
   7  -5   8  445.44   18.87
   7  -5   8  464.84   17.80
   7  -5   9   34.41    4.45
   7  -5   9   31.52    5.05
   7  -5  10   20.82    3.76
   7  -5  10   23.53    4.55
   7  -5  11   45.39    5.42
  -7  -6  11    0.88    1.64
  -7  -6  10   89.39    7.17
  -7  -6   9    5.06    2.39
  -7  -6   8  137.06    8.10
  -7  -6   8  125.12    9.30
  -7  -6   7    6.87    2.01
  -7  -6   7    5.86    2.58
  -7  -6   6  158.71    7.96
  -7  -6   6  157.07    9.90
  -7  -6   5    5.18    1.50
  -7  -6   5    2.95    2.34
  -7  -6   4  196.46    8.03
  -7   6   4  202.57   10.65
  -7  -6   4  198.03   11.00
  -7   6   3   17.22    3.20
  -7  -6   3   13.15    2.94
  -7   6   2  198.70   10.09
  -7  -6   2  188.70   10.58
  -7  -6   2  207.37   10.95
  -7  -6   1   34.69    4.32
  -7   6   1   33.60    3.89
  -7  -6   1   36.24    4.42
  -7   6   0  192.64    9.60
  -7  -6   0  183.25   10.49
  -7   6   0  204.78    9.45
  -7  -6   0  193.48    9.17
  -7  -6   0  199.73   10.72
  -7   6  -1   28.15    3.39
  -7  -6  -1   28.16    4.09
  -7   6  -1   26.10    3.20
  -7  -6  -1   36.09    3.70
  -7  -6  -1   32.98    4.34
  -7   6  -2  131.53    7.61
   7  -6   2  146.17    8.91
  -7   6  -2  137.51    7.77
  -7  -6  -2  136.64    7.62
  -7  -6  -2  131.87    8.68
   7  -6   3   78.83    6.62
  -7   6  -3   83.87    6.02
  -7  -6  -3   93.24    6.26
   7  -6   4  113.70    8.22
   7  -6   5   24.04    4.19
   7  -6   6   48.80    5.57
   7  -6   7   99.16    8.10
   7  -6   7   84.54    7.14
   7  -6   8   33.41    4.65
   7  -6   8   35.07    5.33
   7  -6   9   14.12    3.26
   7  -6   9   12.80    3.29
   7  -6  10   14.61    3.52
  -7  -7  11   82.52    7.36
  -7  -7  10   17.10    3.34
  -7  -7   9   55.13    5.31
  -7  -7   8   33.23    3.99
  -7  -7   8   37.63    5.42
  -7  -7   7   61.33    5.09
  -7  -7   7   66.24    6.73
  -7  -7   6  108.42    8.56
  -7  -7   5   39.73    5.07
  -7   7   4   10.47    2.89
  -7  -7   4    3.92    2.16
  -7   7   3   12.31    2.80
  -7  -7   3   11.93    2.83
  -7   7   2  270.42   12.42
  -7  -7   2  273.99   13.62
  -7  -7   2  285.04   13.54
  -7   7   1   15.93    2.83
  -7  -7   1   18.75    3.33
  -7   7   1   15.77    2.50
  -7  -7   1   21.63    2.93
  -7  -7   1   15.19    3.13
  -7   7   0    1.71    1.58
  -7  -7   0    1.18    1.47
  -7   7   0   -1.11    1.12
  -7  -7   0   -0.13    0.93
  -7  -7   0   -1.56    1.86
  -7   7  -1    5.83    1.87
  -7  -7  -1    0.01    1.71
  -7   7  -1    1.28    1.21
  -7  -7  -1    2.22    1.25
   7  -7   1   -1.33    1.92
  -7  -7  -1    0.51    1.52
  -7   7  -2  317.14   13.07
   7  -7   2  353.13   15.10
  -7   7  -2  335.63   13.07
  -7  -7  -2  328.60   12.84
  -7  -7  -2  325.63   14.88
  -7   7  -3    3.16    1.58
   7  -7   3    4.67    2.26
   7  -7   4    4.50    2.25
   7  -7   5    2.57    2.08
   7  -7   6  201.98   11.54
   7  -7   6  206.69   12.11
   7  -7   7    1.28    1.80
   7  -7   7    0.66    2.22
   7  -7   8    1.59    1.73
   7  -7   8    3.11    2.71
  -7  -8   7   18.24    4.06
  -7  -8   6    7.44    2.91
  -7  -8   5    1.99    1.94
  -7   8   4    4.93    2.20
  -7  -8   4    6.48    2.86
  -7  -8   3    6.57    2.58
  -7   8   3    3.09    2.18
  -7  -8   3   -1.42    2.28
  -7  -8   2    4.08    2.18
  -7   8   2    4.77    2.28
  -7  -8   2    0.15    1.61
  -7   8   1    1.11    1.38
  -7  -8   1   -0.87    1.90
   7  -8  -1    0.64    1.70
  -7  -8   1    1.96    2.13
  -7   8   0    1.18    1.34
  -7  -8   0    0.00    1.85
   7  -8   0    3.00    1.80
  -7  -8   0    0.28    1.55
  -7   8  -1    7.53    2.09
  -7  -8  -1    6.69    2.46
   7  -8   1    8.76    2.59
  -7  -8  -1    6.22    2.24
  -7   8  -2    3.12    1.37
   7  -8   2    2.61    2.05
  -7   8  -3    3.08    1.39
   7  -8   3    6.34    2.54
   7  -8   4    7.29    2.82
   7  -8   5   34.25    4.91
   7  -8   6    0.64    2.03
   7  -8   6    2.89    2.63
  -7   9   4   78.18    7.07
  -7  -9   4   74.36    7.62
  -7  -9   4   94.35    8.06
  -7   9   3   92.44    7.45
  -7  -9   3   98.15    8.46
  -7  -9   3   89.06    7.84
  -7   9   2   17.50    3.29
  -7  -9   2   19.00    4.14
   7  -9  -2   12.90    2.67
  -7  -9   2   18.75    3.92
  -7   9   1  147.58    9.25
  -7  -9   1  162.88   11.13
   7  -9  -1  184.77   10.30
  -7  -9   1  167.35   10.78
  -7   9   0   70.30    6.03
   7  -9   0   78.98    6.86
  -7  -9   0   61.07    6.78
  -7  -9   0   67.41    6.60
  -7   9  -1  175.61    9.79
  -7  -9  -1  183.78   11.88
   7  -9   1  191.19   11.18
  -7  -9  -1  170.94   10.83
   7  -9   2   13.15    3.15
   7  -9   3  176.26   10.97
   7  -9   4   51.94    6.05
   7  -9   5  203.28   12.53
  -7  10   4   52.62    6.05
  -7 -10   4   66.18    6.92
  -7  10   3   36.76    4.90
  -7 -10   3   27.31    4.68
  -7  10   2   60.08    6.09
  -7 -10   2   72.22    7.16
  -7  10   1   25.58    4.24
  -7 -10   1   32.28    4.84
  -7 -10   0  103.93    8.51
   7 -10   1   32.76    4.73
  -7 -10  -1   29.02    4.64
   7 -10   2   91.09    7.77
   7 -10   3    6.52    2.74
  -8   0  13   -1.63    1.63
  -8   0  12  561.61   20.10
  -8   0  11   -0.01    1.79
  -8   0  10  160.12    9.02
  -8   0   9    2.91    1.62
  -8   0   8 1092.26   30.81
  -8   0   8 1092.79   28.59
  -8   0   7    2.32    1.59
  -8   0   7    1.18    1.00
  -8   0   6  228.36   10.36
  -8   0   6  226.86    9.04
  -8   0   5   -2.43    1.56
  -8   0   5    1.33    1.02
  -8   0   4 1256.57   33.48
  -8   0   3    0.28    1.16
  -8   0   2   61.17    4.99
  -8   0   1    1.72    1.44
  -8   0   0 1090.47   30.08
  -8   0  -1    1.43    1.42
  -8   0  -2    4.85    1.89
  -8   0  -3   -0.23    1.30
   8   0   4  384.77   11.72
  -8   0  -4  355.09   14.97
   8   0   5   -0.27    0.75
  -8   0  -5   -2.48    1.79
  -8   0  -6   38.35    4.68
   8   0   6   32.88    2.87
   8   0   7   -0.33    0.84
   8   0   7    0.56    1.40
   8   0   8   74.66    6.28
   8   0   9    1.20    1.56
   8   0  10   69.54    6.37
   8   0  11    1.98    1.91
   8   0  12    7.93    2.56
  -8   1  14   15.92    3.74
  -8   1  13   15.48    3.30
  -8  -1  12   10.46    2.48
  -8   1  12    8.83    2.63
  -8  -1  11   83.89    6.34
  -8   1  11   92.76    7.18
  -8  -1  10    1.61    1.21
  -8   1  10    3.89    1.93
  -8  -1   9   31.15    3.65
  -8   1   9   37.24    4.36
  -8  -1   9   34.94    3.72
  -8  -1   8    0.12    1.25
  -8  -1   8   -1.54    1.13
  -8  -1   7  141.71    7.75
  -8   1   7  123.63    7.65
  -8   1   7  133.12    5.94
  -8  -1   7  135.26    7.24
  -8  -1   6    1.43    1.38
  -8   1   6   -0.18    1.11
  -8  -1   6    1.34    1.19
  -8  -1   5  100.48    6.25
  -8   1   5  105.62    6.70
  -8  -1   5   86.31    5.57
  -8  -1   4    9.14    2.03
  -8   1   4   14.72    2.68
  -8  -1   4   14.20    2.34
  -8   1   3  130.55    7.46
  -8   1   3  135.25    7.29
  -8  -1   2   38.09    3.96
  -8   1   2   23.98    3.13
  -8   1   2   34.11    3.47
  -8   1   1  185.12    8.80
   8   1  -1  169.13    6.82
  -8   1   1  170.90    8.39
  -8  -1   1  176.22    9.01
   8   1   0   49.11    3.27
  -8   1   0   63.22    4.83
  -8  -1   0   59.79    4.95
  -8   1  -1  115.05    7.30
  -8  -1  -1  120.84    7.42
  -8  -1  -1  114.42    7.24
   8   1   1  111.44    4.92
  -8   1  -2   76.22    5.94
  -8  -1  -2   72.32    5.88
  -8   1  -3  197.11   10.11
  -8  -1  -3  208.81   10.35
  -8   1  -4   77.13    6.08
  -8  -1  -4   69.33    5.86
   8   1   4   67.92    3.40
  -8   1  -5   61.54    5.61
  -8  -1  -5   66.48    5.98
   8   1   5   61.90    3.30
   8  -1   5   63.18    4.27
  -8   1  -6   61.67    5.87
  -8  -1  -6   62.56    5.84
   8  -1   6   62.36    4.35
   8  -1   7  163.56    9.77
   8   1   7  169.92    9.42
   8  -1   7  169.39    7.79
   8  -1   8   37.26    3.59
   8  -1   8   33.74    4.44
   8   1   8   34.94    4.24
   8  -1   9   27.68    4.35
   8   1   9   18.28    3.19
   8  -1  10   19.08    3.60
   8   1  10   19.46    3.46
   8   1  11  104.83    7.83
   8  -1  11  106.45    8.44
   8  -1  12    8.54    2.94
  -8   2  13    4.42    2.38
  -8  -2  12    4.68    2.20
  -8   2  12    4.58    2.55
  -8  -2  11   44.17    5.28
  -8   2  11   44.83    5.22
  -8  -2  11   46.56    5.02
  -8  -2  10  158.43    8.34
  -8   2  10  151.63    9.48
  -8  -2  10  136.63    8.54
  -8  -2  10  153.09    9.32
  -8  -2   9   29.79    3.56
  -8   2   9   26.28    3.78
  -8  -2   9   34.77    4.06
  -8  -2   9   28.24    3.95
  -8  -2   8    8.82    1.94
  -8   2   8    9.15    2.34
  -8  -2   8   13.38    2.58
  -8  -2   7   58.80    4.84
  -8   2   7   60.04    5.34
  -8  -2   7   61.11    5.04
  -8  -2   6  209.40    9.43
  -8   2   6  207.52   10.36
  -8  -2   6  207.46    9.71
  -8   2   5   19.71    3.14
  -8  -2   5   21.53    3.07
  -8   2   4   58.88    5.03
  -8  -2   4   58.24    4.74
  -8   2   3   56.80    4.91
  -8  -2   3   63.28    4.94
  -8   2   3   55.90    4.37
  -8   2   2  171.16    8.81
   8   2  -2  179.55    6.96
  -8  -2   2  178.10    8.80
   8  -2  -2  164.19    6.94
  -8   2   2  179.25    8.22
  -8  -2   2  177.74    9.29
  -8   2   1    4.52    1.48
   8   2  -1    2.85    0.86
  -8   2   1    2.80    1.32
  -8  -2   1    2.03    1.39
  -8   2   0  221.39   10.08
   8   2   0  222.50    7.13
  -8  -2   0  233.23   11.06
  -8   2  -1    2.23    1.76
  -8  -2  -1    5.66    1.94
  -8  -2  -1    4.39    2.25
  -8  -2  -2   39.38    4.40
  -8   2  -2   37.62    4.20
  -8   2  -3    0.75    1.35
  -8  -2  -3   -1.58    1.21
  -8   2  -4  353.60   14.66
  -8  -2  -4  356.39   14.73
  -8   2  -5   14.69    2.94
  -8  -2  -5   19.65    3.31
   8  -2   6    5.94    1.60
   8  -2   6    5.40    2.20
   8  -2   7   23.06    2.98
   8  -2   7   25.07    3.96
   8   2   7   23.22    3.23
   8  -2   8  351.28   15.96
   8   2   8  370.09   14.88
   8  -2   8  383.48   14.04
   8  -2   9   33.43    4.58
   8   2   9   34.77    4.22
   8  -2   9   36.96    3.90
   8  -2  10   39.09    5.15
   8   2  10   27.73    3.85
   8  -2  11   28.09    4.68
  -8  -3  12    1.43    2.00
  -8  -3  11   52.61    5.59
  -8  -3  10    2.22    1.75
  -8  -3  10    0.23    1.57
  -8  -3   9    5.01    1.94
  -8   3   9    8.22    2.55
  -8  -3   9    6.77    2.45
  -8  -3   8    8.02    2.17
  -8   3   8    7.26    2.40
  -8  -3   8    8.93    2.39
  -8  -3   7   24.55    3.30
  -8   3   7   23.82    3.56
  -8  -3   7   26.62    3.55
  -8   3   6   10.55    2.62
  -8  -3   6   12.13    2.54
  -8   3   5    6.17    2.24
  -8  -3   5    1.46    1.55
  -8   3   4   31.21    3.83
  -8  -3   4   32.18    3.77
  -8   3   4   33.19    3.28
  -8   3   3    3.52    1.83
  -8  -3   3    1.72    1.33
  -8   3   3    1.25    0.96
  -8   3   2   54.39    4.81
  -8  -3   2   55.87    4.95
  -8   3   2   48.89    3.86
  -8  -3   2   56.27    5.26
  -8  -3   1    2.27    1.55
  -8   3   1   -0.40    1.40
  -8   3   0   90.56    6.10
  -8  -3   0   78.66    6.27
  -8   3  -1   12.26    2.63
  -8  -3  -1   10.21    2.35
  -8  -3  -1   12.47    2.58
  -8   3  -2  100.08    6.80
  -8  -3  -2   96.72    6.72
  -8  -3  -2   86.16    6.77
  -8   3  -3    3.35    1.83
  -8  -3  -3    3.10    1.75
  -8   3  -4  110.80    7.52
  -8  -3  -4  109.11    7.52
  -8   3  -5   15.33    3.15
  -8  -3  -5   18.11    3.13
   8  -3   5   15.68    3.00
   8  -3   6   95.64    7.51
   8  -3   6   91.24    6.27
   8  -3   7   10.90    2.22
   8  -3   7   12.73    3.23
   8   3   7    5.20    1.75
   8  -3   8   84.99    7.60
   8   3   8   87.02    6.23
   8  -3   8   79.53    6.10
   8  -3   9    5.67    1.81
   8  -3   9    4.98    2.59
   8  -3  10   56.39    5.32
   8  -3  10   51.93    6.06
   8  -3  11   20.40    3.56
   8  -3  11   23.65    4.25
  -8  -4  12  146.28   10.04
  -8  -4  11  205.01   11.65
  -8  -4  10    7.46    2.47
  -8  -4  10    8.18    2.59
  -8  -4   9  327.30   15.01
  -8  -4   9  343.40   14.37
  -8   4   8  241.72   12.57
  -8  -4   8  242.48   12.40
  -8  -4   8  259.41   11.65
  -8   4   7  306.97   14.09
  -8  -4   7  310.41   13.99
  -8  -4   7  313.53   12.52
  -8  -4   6    1.59    0.95
  -8   4   6    1.90    1.88
  -8  -4   6    2.23    1.74
  -8   4   5  414.12   16.32
  -8  -4   5  437.15   16.73
  -8  -4   5  431.34   14.10
  -8   4   5  403.79   13.42
  -8   4   4  294.81   12.96
  -8  -4   4  310.41   13.34
  -8   4   4  293.63   10.48
  -8   4   3  255.88   11.68
  -8  -4   3  262.33   11.98
  -8   4   3  246.43    9.21
  -8  -4   2    5.43    2.17
  -8   4   2    8.58    2.20
  -8  -4   2    5.57    1.86
  -8   4   1  300.34   12.45
  -8  -4   1  281.74   12.71
  -8  -4   1  264.64   12.68
  -8   4   0  192.13    9.71
  -8  -4   0  188.42   10.35
  -8   4  -1  146.69    8.23
  -8   4  -1  142.13    8.40
  -8  -4  -1  163.78    8.77
  -8  -4  -1  144.99    8.94
  -8   4  -2   19.98    3.10
  -8  -4  -2   20.80    3.15
  -8  -4  -2   21.53    3.51
  -8   4  -3   52.18    5.00
  -8  -4  -3   53.51    5.14
  -8   4  -4  126.69    8.16
  -8  -4  -4  122.28    8.01
  -8   4  -5   33.12    4.41
  -8  -4  -5   41.08    4.76
   8  -4   5   35.96    4.72
   8  -4   6   48.39    4.83
   8  -4   6   42.65    5.13
   8  -4   7    2.17    1.67
   8  -4   7    1.20    1.61
   8  -4   8   44.03    5.46
   8  -4   8   40.30    4.63
   8  -4   9    1.22    1.47
   8  -4   9   -1.31    1.62
   8  -4  10   19.41    4.16
   8  -4  10   20.25    3.53
   8  -4  11   12.32    2.99
   8  -4  12   15.57    3.89
  -8  -5  11   21.30    3.73
  -8  -5  11   16.90    3.70
  -8  -5  10   91.19    7.19
  -8  -5  10   76.62    7.37
  -8  -5   9    2.18    1.59
  -8  -5   9    6.13    2.67
  -8  -5   8  107.26    7.15
  -8  -5   8  103.12    8.14
  -8  -5   7   50.20    4.56
  -8   5   7   43.05    5.05
  -8  -5   7   43.57    5.18
  -8   5   6  107.54    7.97
  -8  -5   6  111.58    8.23
  -8  -5   6  123.36    6.83
  -8   5   5   39.59    4.76
  -8  -5   5   42.64    4.99
  -8  -5   5   46.39    3.80
  -8   5   4  113.39    7.85
  -8  -5   4  130.80    8.65
  -8   5   3   90.12    6.75
  -8  -5   3   83.26    6.74
  -8   5   2   88.15    6.49
  -8  -5   2   98.78    7.33
  -8  -5   2   90.70    7.23
  -8   5   1  128.66    7.94
  -8  -5   1  127.99    8.50
  -8  -5   1  136.23    8.84
  -8   5   0   93.74    6.51
  -8  -5   0   89.76    7.06
  -8   5   0   84.80    6.35
  -8  -5   0   94.73    6.57
  -8  -5   0   90.79    7.23
  -8   5  -1  110.82    7.12
  -8   5  -1  111.39    7.23
  -8  -5  -1  116.68    7.41
  -8  -5  -1  115.84    8.19
  -8   5  -2   54.89    5.09
  -8  -5  -2   55.07    5.02
  -8  -5  -2   62.67    6.05
  -8   5  -3  186.83   10.03
  -8  -5  -3  206.04   10.34
  -8   5  -4   51.38    5.11
  -8  -5  -4   48.67    5.13
   8  -5   4   45.40    5.36
   8  -5   5   78.09    7.00
   8  -5   6   25.44    4.29
   8  -5   6   15.38    2.91
   8  -5   7  174.50   11.16
   8  -5   7  168.99    9.98
   8  -5   8   16.95    3.20
   8  -5   8   20.40    4.24
   8  -5   9   26.15    3.95
   8  -5   9   23.52    4.54
   8  -5  10    5.49    2.45
   8  -5  11   91.65    7.94
  -8  -6  11   23.76    3.95
  -8  -6  10   -0.35    1.55
  -8  -6  10    2.61    2.58
  -8  -6   9   16.15    3.08
  -8  -6   9   21.55    4.10
  -8  -6   8  162.13    9.01
  -8  -6   8  149.97   10.36
  -8  -6   7   27.78    4.34
  -8   6   6   -0.25    1.57
  -8  -6   6    2.45    2.23
  -8   6   5   17.93    3.41
  -8  -6   5   17.38    3.38
  -8   6   4  223.36   11.64
  -8  -6   4  231.92   12.34
  -8  -6   3    3.60    2.04
  -8   6   3    4.47    2.12
  -8  -6   3   -0.01    1.84
  -8  -6   2    3.14    1.92
  -8   6   2    2.59    1.90
  -8  -6   2   -1.76    1.98
  -8   6   1    0.73    1.63
  -8  -6   1    0.57    1.66
  -8  -6   1    1.76    2.01
  -8   6   0  169.76    9.41
  -8  -6   0  171.65   10.35
  -8   6   0  166.78    9.10
  -8  -6   0  181.28    9.32
  -8  -6   0  168.34   10.26
  -8   6  -1   16.76    3.04
  -8   6  -1   17.78    2.95
  -8  -6  -1   12.49    2.60
  -8  -6  -1   13.27    2.93
  -8   6  -2    0.62    1.22
  -8   6  -2   -0.21    1.21
  -8  -6  -2   -1.20    1.44
  -8  -6  -2   -2.04    1.63
  -8  -6  -3   45.22    4.67
  -8   6  -3   39.15    4.42
   8  -6   3   42.39    5.17
   8  -6   4  147.49    9.86
  -8  -6  -4  143.78    8.80
   8  -6   5   87.95    7.74
   8  -6   6    2.39    2.73
   8  -6   7   80.46    7.69
   8  -6   7   84.64    7.36
   8  -6   8   61.44    6.25
   8  -6   9  133.68    9.65
  -8  -7   8    1.64    2.20
  -8  -7   7   14.18    3.64
  -8   7   6    1.53    1.82
  -8  -7   6    5.14    2.53
  -8   7   5    2.69    2.50
  -8  -7   5    4.24    2.77
  -8   7   4    0.56    1.90
  -8  -7   4    0.41    1.81
  -8  -7   3    2.13    1.80
  -8   7   3   -0.34    1.72
  -8  -7   3   -2.92    2.00
  -8  -7   2    2.71    1.93
  -8   7   2    3.73    1.98
  -8  -7   2    2.56    1.98
  -8   7   1    0.45    1.43
  -8  -7   1   -1.31    1.63
  -8   7   1    1.07    1.20
  -8  -7   1    3.02    1.56
  -8  -7   1    0.34    1.45
  -8   7   0   -1.29    1.55
  -8  -7   0    2.80    2.00
  -8   7   0    4.95    1.98
  -8  -7   0    0.76    1.12
  -8  -7   0    5.90    2.36
  -8   7  -1   14.74    2.88
  -8   7  -1   16.71    2.95
  -8  -7  -1   21.28    3.17
   8  -7   1   18.93    3.64
  -8  -7  -1   17.37    3.56
  -8   7  -2    2.46    1.18
  -8   7  -2    2.88    1.65
  -8  -7  -2    1.24    1.42
  -8  -7  -2    3.40    2.37
   8  -7   2    3.98    1.99
  -8   7  -3    9.46    2.30
  -8  -7  -3    7.85    2.31
   8  -7   3    7.08    2.54
   8  -7   4   12.27    3.36
   8  -7   5   47.21    5.88
   8  -7   6    2.42    1.98
   8  -7   7    6.01    2.39
  -8   8   6  190.96   11.92
  -8   8   5   95.73    8.13
  -8  -8   5   88.19    8.24
  -8  -8   4   13.60    3.50
  -8   8   4    9.53    2.98
  -8  -8   4    9.14    3.11
  -8   8   3   94.18    7.61
  -8  -8   3   88.49    8.03
  -8  -8   3   88.85    7.90
  -8   8   2  195.81   10.90
  -8  -8   2  157.60   11.09
  -8  -8   2  196.11   12.00
  -8   8   1   31.57    4.24
  -8  -8   1   25.68    4.52
   8  -8  -1   42.27    4.96
  -8  -8   1   32.53    4.82
  -8   8   0   -1.19    1.56
   8  -8   0    2.95    2.06
  -8  -8   0    2.50    1.93
  -8   8  -1   24.22    3.54
   8  -8   1   32.43    4.67
  -8  -8  -1   30.10    4.69
  -8   8  -2  100.64    7.24
   8  -8   2  109.81    8.59
   8  -8   3   14.29    3.62
   8  -8   4    6.75    2.56
   8  -8   5    9.38    2.69
  -8   9   4   90.78    7.91
  -8  -9   3   29.05    4.84
  -8   9   3   27.81    4.33
  -8   9   2   97.51    7.80
   8  -9  -2  103.71    7.89
  -8  -9   2   87.01    8.08
  -8   9   1   18.47    3.55
   8  -9  -1   13.85    3.21
  -8  -9   1    8.78    2.95
  -8   9   0  114.80    8.20
   8  -9   0  142.84    9.69
  -8  -9   0   99.10    8.64
  -8   9  -1    5.46    1.99
   8  -9   1    7.57    3.01
  -8  -9  -1    8.14    2.78
   8  -9   2   98.37    8.33
   8  -9   3    0.68    1.85
  -8  10   2    4.03    2.53
  -8  10   1   46.79    5.62
   8 -10   1   63.17    6.99
  -9   0  12    2.81    1.96
  -9   0  11  211.97   11.22
  -9   0  10    1.07    1.46
  -9   0   9  141.76    8.65
  -9   0   8   -0.16    1.51
  -9   0   7  299.85   13.14
  -9   0   6   -0.31    1.23
  -9   0   6   -0.17    1.04
  -9   0   5  231.64   10.96
  -9   0   4    0.50    1.31
  -9   0   3  225.90   10.82
  -9   0   2    3.28    1.64
  -9   0   1  196.77    9.94
  -9   0   0    1.67    1.46
  -9   0  -1   78.13    6.40
  -9   0  -2    3.21    1.71
  -9   0  -3   98.71    7.50
   9   0   4    1.16    1.06
  -9   0  -4   -2.28    1.49
  -9   0  -5    4.13    2.01
  -9   0  -6    1.52    1.65
   9   0   7   23.55    3.74
   9   0   8    1.87    2.17
   9   0   9   10.56    3.09
   9   0  10   -1.45    1.74
   9   0  11    7.48    2.83
   9   0  12    0.61    3.42
  -9   1  12  147.80    9.69
  -9  -1  11    0.26    1.79
  -9   1  11    2.43    2.04
  -9  -1  10    0.61    1.38
  -9   1  10    0.90    1.82
  -9  -1   9   12.35    2.51
  -9   1   9   15.49    3.10
  -9  -1   8  203.92   10.22
  -9   1   8  194.61   10.58
  -9  -1   8  190.48    9.33
  -9  -1   7   59.29    5.20
  -9   1   7   52.82    5.19
  -9  -1   7   51.59    4.54
  -9  -1   6   16.71    2.70
  -9   1   6   20.55    3.36
  -9  -1   6   16.34    2.56
  -9  -1   5  103.58    6.78
  -9   1   5  109.79    7.38
  -9  -1   5  108.66    6.56
  -9   1   4  211.61   10.49
  -9   1   4  216.83   10.25
  -9   1   3  225.80   10.76
  -9   1   3  205.01   10.02
  -9  -1   3  234.49   11.20
  -9  -1   2   21.69    3.37
  -9   1   2   24.05    3.39
  -9   1   2   18.48    2.88
  -9   1   1  211.58   10.14
  -9  -1   1  221.57   10.94
  -9   1   0  114.78    7.17
  -9  -1   0  114.51    7.57
  -9   1  -1  266.88   12.52
  -9  -1  -1  265.94   12.49
  -9  -1  -1  264.62   12.33
  -9   1  -2   20.47    3.49
  -9  -1  -2   16.45    3.18
  -9   1  -3  264.19   12.64
  -9  -1  -3  250.31   12.33
  -9   1  -4  100.37    7.67
  -9  -1  -4  112.73    7.89
  -9   1  -5  185.56   10.89
  -9  -1  -5  186.58   10.89
   9  -1   5  178.98    8.03
   9  -1   6   17.89    2.48
  -9   1  -6   21.09    3.80
  -9  -1  -6   16.72    3.61
   9  -1   7  125.20    8.84
   9   1   7  128.98    8.46
   9  -1   8   77.71    6.99
   9   1   8   67.63    6.19
   9  -1   9   67.33    6.74
   9   1   9   73.91    6.65
   9  -1  10    7.08    2.52
   9   1  10    2.23    1.51
   9  -1  11   27.57    4.50
  -9   2  12   -0.47    1.56
  -9   2  11   16.69    3.78
  -9  -2  10    6.49    1.97
  -9   2  10    1.68    1.60
  -9  -2   9    1.60    1.18
  -9   2   9    4.79    1.96
  -9  -2   9    8.34    2.33
  -9  -2   8    3.21    1.83
  -9   2   8    0.98    1.42
  -9  -2   8    2.49    1.51
  -9   2   7   -0.07    1.59
  -9  -2   7    4.75    1.70
  -9   2   6    0.44    1.53
  -9  -2   6    3.79    1.86
  -9   2   5    3.10    1.91
  -9  -2   5    1.58    1.35
  -9   2   4    0.37    0.97
  -9   2   4   -0.43    1.41
  -9  -2   4    0.94    1.40
  -9  -2   3    4.43    1.88
  -9   2   3    1.56    1.47
  -9   2   3    1.87    1.23
  -9  -2   2    0.19    1.16
  -9   2   2    0.56    1.27
  -9   2   2    1.15    1.07
  -9   2   1    9.49    2.26
  -9   2   1   13.59    2.39
  -9  -2   1   14.85    2.94
  -9  -2   0    4.91    1.85
  -9   2  -1    6.65    2.01
  -9  -2  -1    7.43    2.27
  -9  -2  -1    5.19    2.06
  -9   2  -2   14.89    2.92
  -9  -2  -2   17.93    3.13
  -9   2  -3   69.36    6.19
  -9  -2  -3   70.72    6.19
  -9   2  -4   31.68    4.43
  -9  -2  -4   25.96    3.88
  -9   2  -5   25.13    4.23
  -9  -2  -5   28.66    4.37
  -9   2  -6   45.35    5.28
  -9  -2  -6   37.85    5.02
   9  -2   6   28.02    3.29
   9  -2   6   29.64    4.50
   9  -2   7  140.28    9.58
   9   2   7  135.64    8.62
   9  -2   7  146.16    7.85
   9   2   8   52.01    5.27
   9  -2   8   39.44    5.20
   9  -2   9   35.99    5.45
   9   2   9   35.61    4.67
   9  -2  10   38.33    5.31
  -9   3  11   16.12    3.58
  -9   3  10    8.60    2.71
  -9  -3  10   10.93    2.79
  -9   3   9    1.39    1.84
  -9  -3   9    4.03    2.00
  -9   3   8  242.43   12.51
  -9  -3   8  236.34   11.79
  -9   3   7   -0.38    1.52
  -9  -3   7    3.73    2.05
  -9   3   6    2.82    1.58
  -9  -3   6    8.37    2.46
  -9   3   5   13.17    2.38
  -9   3   5   12.77    2.86
  -9  -3   5   13.41    2.72
  -9   3   4  523.38   19.00
  -9  -3   4  524.70   18.80
  -9   3   4  516.65   16.97
  -9  -3   3    1.89    1.88
  -9   3   3   -1.52    1.70
  -9  -3   3    2.25    1.47
  -9   3   3    0.20    0.88
  -9   3   2   34.76    4.22
  -9   3   2   47.50    4.08
  -9  -3   2   50.89    5.27
  -9   3   1   36.31    4.17
  -9  -3   1   33.61    4.24
  -9   3   0  674.15   22.25
  -9  -3   0  716.36   23.96
  -9   3  -1   11.92    2.66
  -9  -3  -1   20.03    3.26
  -9  -3  -1   15.94    3.14
  -9   3  -2   85.50    6.78
  -9  -3  -2   87.03    6.82
  -9   3  -3    8.43    2.59
  -9  -3  -3   13.05    2.92
  -9   3  -4  553.77   20.69
  -9  -3  -4  566.47   20.69
  -9   3  -5    9.05    2.68
  -9  -3  -5    8.98    2.60
   9  -3   6   75.42    6.91
   9  -3   6   69.44    5.58
   9  -3   7    3.62    1.74
   9  -3   7    0.80    1.97
   9   3   7    2.07    1.62
   9  -3   8  324.85   15.97
   9  -3   8  297.74   13.02
   9  -3   9    2.72    2.41
  -9  -4  11   50.62    5.65
  -9  -4  11   47.08    5.68
  -9   4  10   91.90    8.09
  -9  -4  10  105.20    8.35
  -9  -4  10   99.13    7.57
  -9  -4   9   26.85    3.78
  -9   4   9   20.29    3.78
  -9  -4   9   30.33    4.46
  -9   4   8  119.36    8.75
  -9  -4   8  128.43    8.77
  -9  -4   8  126.21    7.85
  -9   4   7   86.49    7.26
  -9  -4   7   87.13    7.15
  -9   4   6  117.62    8.35
  -9  -4   6  119.41    8.32
  -9   4   5   62.34    5.85
  -9  -4   5   68.67    6.04
  -9   4   4  117.83    8.06
  -9  -4   4  101.69    7.57
  -9   4   3   78.25    6.53
  -9  -4   3   96.49    7.25
  -9  -4   3   92.74    7.50
  -9   4   2   86.45    6.69
  -9  -4   2   79.65    6.79
  -9  -4   2   87.20    7.10
  -9   4   1   96.09    7.15
  -9  -4   1  111.55    8.14
  -9   4   0   57.23    5.24
  -9   4   0   51.32    5.21
  -9  -4   0   56.14    5.30
  -9  -4   0   66.01    6.27
  -9   4  -1   53.83    5.47
  -9  -4  -1   55.78    5.36
  -9  -4  -1   59.12    5.92
  -9   4  -2   19.22    3.24
  -9  -4  -2   23.79    3.58
  -9   4  -3   97.10    7.39
  -9  -4  -3  102.32    7.60
  -9   4  -4   10.68    2.73
  -9  -4  -4    7.40    2.39
  -9   4  -5   18.28    3.47
  -9  -4  -5   17.34    3.49
   9  -4   5   14.78    3.13
   9  -4   6    0.77    1.41
   9  -4   6    0.19    1.78
   9  -4   7   62.43    6.78
   9  -4   7   72.13    6.18
   9  -4   8    3.07    2.37
   9  -4   8    2.13    1.72
   9  -4   9    1.92    2.00
  -9  -5  11   40.85    5.43
  -9  -5  11   36.91    5.57
  -9  -5  10   19.49    3.59
  -9  -5  10   25.84    4.46
  -9  -5   9   36.80    4.98
  -9   5   8   46.36    5.61
  -9  -5   8   50.48    5.75
  -9   5   7   71.49    6.89
  -9  -5   7   70.30    6.79
  -9   5   6   97.15    7.77
  -9  -5   6  105.93    8.08
  -9   5   5   43.62    5.28
  -9  -5   5   45.95    5.23
  -9   5   4    5.49    2.41
  -9  -5   4    5.91    2.25
  -9   5   3   76.55    6.67
  -9  -5   3   91.41    7.43
  -9  -5   3   90.86    7.55
  -9   5   2  280.52   13.17
  -9  -5   2  273.39   13.67
  -9  -5   2  280.04   13.97
  -9   5   1   38.29    4.53
  -9  -5   1   43.25    5.05
  -9  -5   1   34.49    4.73
  -9   5   0    2.81    1.87
  -9   5   0    1.29    1.31
  -9  -5   0    6.34    2.28
  -9  -5   0    1.20    1.48
  -9   5  -1   52.13    5.11
  -9   5  -1   52.30    5.16
  -9  -5  -1   50.41    5.03
  -9  -5  -1   52.93    5.84
  -9   5  -2  308.84   13.96
  -9  -5  -2  319.34   14.05
  -9  -5  -2  310.48   15.17
  -9   5  -3   25.70    3.83
  -9  -5  -3   21.45    3.64
  -9   5  -4    0.51    1.64
  -9  -5  -4    1.96    1.90
   9  -5   4    2.11    1.92
   9  -5   5   27.86    4.53
   9  -5   6  149.41    9.44
   9  -5   6  153.36   10.71
   9  -5   7   11.93    2.93
   9  -5   7   16.25    4.11
   9  -5   8    3.77    2.21
   9  -5   9    3.73    2.27
   9  -5  10   49.01    5.82
  -9  -6   9    5.44    2.64
  -9  -6   8    1.32    1.78
  -9   6   7    6.04    2.62
  -9  -6   7   11.25    3.22
  -9   6   6    5.70    3.07
  -9  -6   6    3.84    2.10
  -9   6   5    0.66    1.67
  -9  -6   5    2.53    2.27
  -9  -6   4    3.55    2.19
  -9   6   4    1.55    1.98
  -9  -6   4    3.27    2.25
  -9  -6   3    2.49    2.00
  -9   6   3    2.13    1.84
  -9  -6   3    1.68    2.10
  -9   6   2   -0.90    1.30
  -9  -6   2    1.39    1.52
  -9  -6   2   -0.02    1.69
  -9   6   1   -0.53    1.46
  -9  -6   1    3.19    2.01
  -9   6   1   -1.74    1.35
  -9  -6   1   -1.81    1.74
  -9  -6   1    2.78    2.27
  -9   6   0    8.13    2.53
  -9   6   0    6.98    2.27
  -9  -6   0    6.14    2.24
  -9  -6   0   12.23    3.22
  -9   6  -1   13.86    2.95
  -9   6  -1    8.95    2.43
  -9  -6  -1   10.68    2.64
  -9  -6  -1   10.73    2.96
  -9   6  -2   11.52    2.57
  -9  -6  -2   13.62    2.92
  -9  -6  -3   -2.17    1.62
   9  -6   3   -1.38    2.20
  -9   6  -4   25.98    4.07
  -9  -6  -4   35.15    4.57
   9  -6   4   36.61    5.09
   9  -6   5   21.93    4.38
   9  -6   6   37.98    5.38
   9  -6   6   32.68    4.59
   9  -6   7    2.74    1.85
   9  -6   8   55.86    6.12
  -9  -7   6    3.39    2.26
  -9   7   5   40.95    5.39
  -9  -7   5   52.69    6.40
  -9   7   4  190.43   11.37
  -9  -7   4  186.82   11.88
  -9  -7   4  192.13   12.18
  -9   7   3   81.29    7.28
  -9  -7   3   92.67    8.14
  -9  -7   3   89.01    8.08
  -9   7   2    2.47    1.91
  -9  -7   2    7.71    2.93
  -9   7   2    0.72    1.84
  -9  -7   2    4.89    2.24
  -9   7   1   97.45    7.71
  -9  -7   1   87.98    8.06
  -9   7   1  101.39    7.26
  -9  -7   1  102.32    7.39
  -9  -7   1  121.63    9.29
  -9   7   0  270.99   13.26
  -9   7   0  266.51   12.57
  -9  -7   0  285.80   12.83
  -9  -7   0  255.77   14.19
  -9   7  -1  168.48    9.89
  -9   7  -1  150.33    9.21
  -9  -7  -1  160.57    9.35
  -9  -7  -1  177.30   11.39
  -9   7  -2    2.89    1.73
  -9  -7  -2    2.25    1.65
   9  -7   2    5.85    2.77
   9  -7   3   92.67    8.27
  -9   7  -3   97.19    7.64
  -9  -7  -3  100.31    7.53
   9  -7   4  182.51   11.91
  -9   8   4  116.28    9.02
  -9   8   3    2.99    2.18
  -9   8   2  124.72    8.98
  -9  -8   2  115.43    9.49
  -9   8   1   -3.07    1.70
  -9  -8   1   -2.00    1.87
  -9   8   0  131.43    9.01
   9  -8   0  131.70    9.61
  -9  -8   0  117.32    9.62
  -9   8  -1    1.70    1.68
   9  -8   1    2.10    2.00
  -9  -8  -1    0.10    1.89
   9  -8   2  105.97    8.86
   9  -9  -2   99.37    8.32
  -9   9   1    5.20    2.38
   9  -9  -1   11.44    3.26
  -9   9   0    1.60    1.89
   9  -9   0    1.01    2.21
  -9   9  -1    0.26    1.74
 -10   0  12    2.27    2.50
 -10   0  11    0.00    1.56
 -10   0  10  153.48    9.74
 -10   0   9   -0.51    2.11
 -10   0   8    5.49    2.13
 -10   0   7   -0.94    1.64
 -10   0   6  111.47    7.70
 -10   0   5   -1.14    1.47
 -10   0   4   36.36    4.44
 -10   0   3    0.11    1.18
 -10   0   2   54.17    5.39
 -10   0   1    4.48    2.21
 -10   0   0  223.51   11.45
 -10   0  -1    0.56    1.42
 -10   0  -2    2.94    1.81
 -10   0  -3    0.57    1.64
 -10   0  -4  301.82   14.79
 -10   0  -5    0.64    2.06
 -10   0  -6   30.95    4.81
  10   0   7    2.19    2.01
  10   0   8  353.20   16.54
  10   0   9    1.13    1.72
  10   0  10   42.60    5.68
 -10  -1  11   43.52    5.07
 -10   1  11   37.65    5.02
 -10  -1  10    0.20    1.47
 -10   1  10    4.31    2.14
 -10  -1   9    5.69    2.00
 -10   1   9    6.67    2.26
 -10  -1   8   19.89    3.57
 -10   1   8   19.46    3.44
 -10  -1   7   31.02    4.11
 -10   1   7   42.01    4.84
 -10   1   6   36.91    4.43
 -10   1   5   16.45    3.17
 -10   1   5   18.54    3.22
 -10   1   4   79.92    6.42
 -10   1   4   72.87    6.12
 -10  -1   4   76.64    6.57
 -10  -1   3   15.92    3.22
 -10   1   3   19.68    3.32
 -10   1   3   12.44    2.63
 -10   1   2  101.51    7.14
 -10  -1   2   99.03    7.45
 -10   1   1   24.94    3.52
 -10  -1   1   27.24    4.15
 -10  -1   0  134.12    8.81
 -10   1  -1    4.50    2.31
 -10  -1  -1    2.47    1.86
 -10   1  -2  115.69    8.47
 -10  -1  -2  121.68    8.69
 -10   1  -3   36.06    4.88
 -10  -1  -3   35.86    4.87
 -10   1  -4  112.11    8.53
 -10  -1  -4  109.11    8.49
 -10   1  -5    2.05    1.80
 -10  -1  -5    0.94    1.95
 -10   1  -6   90.76    8.05
 -10  -1  -6   83.32    7.69
  10  -1   7   37.52    5.28
  10   1   7   37.85    4.82
  10  -1   8   52.22    6.11
  10   1   8   38.49    5.01
  10  -1   9    8.65    3.75
  10   1   9    5.58    3.07
  10   1  10   24.46    4.22
 -10   2  10   58.92    6.23
 -10   2   9   50.91    5.75
 -10   2   8  434.12   18.03
 -10   2   7  110.12    8.22
 -10  -2   7  110.42    7.51
 -10   2   6   47.54    5.25
 -10  -2   6   53.57    5.09
 -10   2   5   82.39    6.75
 -10  -2   5   91.21    6.62
 -10   2   5   71.65    5.88
 -10   2   4  399.96   16.51
 -10   2   4  409.54   15.60
 -10  -2   4  399.71   17.03
 -10   2   3   52.32    5.32
 -10   2   3   54.19    4.99
 -10  -2   3   55.60    5.77
 -10   2   2    3.37    1.85
 -10   2   2    6.93    1.74
 -10  -2   2    1.95    1.65
 -10  -2   1   46.69    5.34
 -10  -2   0  250.22   12.79
 -10   2  -1   23.94    3.96
 -10  -2  -1   30.21    4.36
 -10  -2  -1   24.22    4.03
 -10   2  -2   11.56    2.69
 -10  -2  -2   16.30    3.30
 -10   2  -3    2.67    1.93
 -10  -2  -3    8.30    2.79
 -10   2  -4  111.08    8.53
 -10  -2  -4  105.97    8.29
 -10   2  -5   -0.05    1.60
 -10  -2  -5    5.68    2.75
 -10   2  -6   42.23    5.72
 -10  -2  -6   44.37    5.50
  10  -2   6   42.61    5.23
  10  -2   7    4.51    2.47
  10   2   7    5.07    2.40
  10  -2   8   24.50    4.59
  10   2   8   40.40    5.02
 -10   3   9   32.50    4.83
 -10   3   8   13.46    3.41
 -10  -3   8   17.02    3.18
 -10   3   7  119.11    8.73
 -10  -3   7  117.07    8.14
 -10   3   6    6.47    2.35
 -10  -3   6    6.51    2.36
 -10   3   5  120.44    8.64
 -10  -3   5  127.84    8.62
 -10   3   5  134.21    7.78
 -10  -3   4    4.95    2.48
 -10   3   4    1.86    1.87
 -10  -3   4    3.02    1.89
 -10   3   4    2.53    1.57
 -10   3   3  173.98   10.14
 -10   3   3  166.84    8.71
 -10  -3   3  160.97   10.40
 -10   3   2    2.46    1.91
 -10  -3   2    1.29    1.97
 -10   3   1  204.46   11.00
 -10  -3   1  217.55   12.11
 -10   3   0   -0.70    1.75
 -10  -3   0    0.37    1.84
 -10  -3   0    3.44    2.23
 -10   3  -1  140.82    9.37
 -10  -3  -1  155.59    9.83
 -10  -3  -1  148.59    9.85
 -10   3  -2    0.39    1.46
 -10  -3  -2    0.91    1.50
 -10   3  -3  225.49   12.41
 -10  -3  -3  217.31   12.04
 -10   3  -4    2.82    1.58
 -10  -3  -4    6.50    2.78
 -10   3  -5   78.02    7.38
 -10  -3  -5   82.43    7.54
  10  -3   6    1.66    1.58
  10  -3   6    4.06    2.26
  10  -3   7  130.78   10.09
 -10  -4   9   34.19    4.79
 -10   4   8   55.27    6.14
 -10  -4   8   48.06    5.40
 -10   4   7   15.66    3.31
 -10  -4   7   15.13    3.24
 -10   4   6   14.78    3.47
 -10  -4   6   15.41    3.20
 -10   4   5   15.77    3.32
 -10  -4   5   15.77    3.11
 -10   4   4  122.38    8.69
 -10  -4   4  121.57    8.62
 -10  -4   4  124.77    9.39
 -10  -4   3    2.73    1.71
 -10   4   3    1.16    1.62
 -10  -4   3    6.21    2.53
 -10   4   2    1.64    1.54
 -10  -4   2    4.22    2.10
 -10   4   1    3.57    2.10
 -10  -4   1    2.02    1.92
 -10   4   0  148.69    9.70
 -10  -4   0  161.94   10.02
 -10  -4   0  165.71   10.71
 -10   4  -1   17.44    3.38
 -10  -4  -1   15.17    3.24
 -10  -4  -1   13.53    3.25
 -10   4  -2    0.19    1.44
 -10  -4  -2   -0.95    1.48
 -10   4  -3   28.17    4.38
 -10  -4  -3   30.28    4.52
 -10   4  -4  202.20   11.94
 -10  -4  -4  209.85   12.10
 -10  -4  -5   63.99    6.57
 -10   4  -5   54.36    6.14
  10  -4   5   50.95    6.09
  10  -4   6    2.95    2.63
  10  -4   6    2.93    1.97
  10  -4   7   83.26    6.86
 -10  -5  10   -1.11    2.62
 -10  -5   9    1.69    2.21
 -10  -5   8    2.62    2.71
 -10  -5   7    1.13    2.38
 -10   5   6    4.58    2.33
 -10  -5   6    5.10    2.11
 -10   5   5    7.64    2.51
 -10  -5   5    8.81    2.54
 -10  -5   4   15.82    3.83
 -10   5   4    6.77    2.63
 -10  -5   4   12.08    3.30
 -10  -5   3   15.78    3.72
 -10   5   3   17.54    3.45
 -10  -5   3   19.28    3.65
 -10   5   2   13.46    3.20
 -10  -5   2   11.78    3.20
 -10   5   1   14.78    3.22
 -10   5   1   23.33    3.88
 -10  -5   1   15.40    3.64
 -10   5   0   20.96    3.58
 -10   5   0   20.48    3.65
 -10  -5   0   23.08    3.67
 -10  -5   0   18.65    3.71
 -10   5  -1   38.32    4.81
 -10  -5  -1   41.83    4.98
 -10  -5  -1   47.85    5.85
 -10   5  -2   27.68    4.24
 -10  -5  -2   23.74    3.84
 -10   5  -3    8.18    2.79
 -10  -5  -3   16.82    3.53
 -10   5  -4   35.30    4.99
 -10  -5  -4   42.70    5.19
  10  -5   4   34.14    5.15
 -10  -5  -5   44.34    5.47
  10  -5   5   42.92    5.85
  10  -5   6   27.82    4.21
  10  -5   7    4.58    2.22
  10  -5   8   35.42    4.90
 -10  -6   7  135.43   10.20
 -10  -6   6   60.89    6.73
 -10   6   5  111.78    8.83
 -10  -6   5  121.57    9.39
 -10  -6   4   21.22    4.33
 -10   6   4   10.24    2.62
 -10  -6   4   16.20    3.84
 -10   6   3   94.00    7.83
 -10  -6   3   93.59    8.44
 -10  -6   3   96.13    8.55
 -10   6   2   52.14    5.86
 -10  -6   2   73.94    7.42
 -10  -6   2   69.90    7.13
 -10   6   1   55.32    5.88
 -10   6   1   62.16    6.17
 -10  -6   1   61.90    6.22
 -10  -6   1   63.75    7.03
 -10   6   0   12.16    2.95
 -10   6   0   18.68    3.57
 -10  -6   0   13.78    3.04
 -10  -6   0    8.30    2.93
 -10   6  -1   17.52    3.36
 -10  -6  -1   17.58    3.39
 -10  -6  -1   16.36    3.98
 -10   6  -2   41.10    5.12
 -10  -6  -2   48.39    5.38
 -10   6  -3   12.74    3.24
 -10  -6  -3   16.09    3.36
  10  -6   3   20.57    4.08
 -10   6  -4   30.40    4.65
 -10  -6  -4   34.51    4.85
  10  -6   6   27.07    4.48
 -10   7   3   11.62    3.19
 -10   7   2  103.21    8.36
 -10  -7   2  121.53    8.54
 -10   7   1   32.91    4.60
 -10   7   1   27.90    4.20
 -10  -7   1   27.67    4.01
 -10   7   0  101.43    8.18
 -10   7   0  108.71    8.08
 -10  -7   0  109.04    8.04
 -10  -7  -1   19.50    3.47
 -10  -7  -2   84.56    7.21
 -10   8   0   68.58    6.73
 -10   8  -1   45.83    5.50
 -11   0   9    5.72    2.12
 -11   0   8    5.12    2.57
 -11   0   7   -1.74    1.70
 -11   0   6    2.00    1.82
 -11   0   6   -0.25    1.55
 -11   0   5    1.50    1.77
 -11   0   4    0.54    1.51
 -11   0   3    7.77    2.53
 -11   0   2    0.56    1.57
 -11   0   1   32.03    4.34
 -11   0   0    0.71    1.70
 -11   0  -1   32.83    4.76
 -11   0  -2    0.81    2.19
 -11   0  -3  140.75   10.02
 -11   0  -4   -0.20    1.88
 -11   0  -5   67.80    7.25
 -11   0  -6   -0.51    1.82
  11   0   7  191.38   12.15
  11   0   8    3.50    2.66
 -11  -1  10    2.51    1.64
 -11  -1   9    3.22    2.00
 -11   1   8  187.88   11.37
 -11   1   7   43.61    5.26
 -11   1   6    0.84    1.44
 -11   1   6    6.67    2.58
 -11  -1   5   47.47    5.62
 -11   1   5   49.44    5.44
 -11   1   5   50.43    5.56
 -11   1   4  322.67   14.53
 -11  -1   4  328.74   15.62
 -11   1   3   72.76    6.43
 -11  -1   3   72.49    6.75
 -11   1   2    5.90    2.27
 -11  -1   2    4.00    1.83
 -11   1   1   75.22    6.54
 -11  -1   1   87.97    7.38
 -11   1   0  322.89   15.75
 -11  -1   0  333.39   15.87
 -11  -1   0  325.10   15.40
 -11   1  -1   88.09    7.87
 -11  -1  -1  100.37    8.40
 -11   1  -2    4.41    1.94
 -11  -1  -2    6.53    2.49
 -11  -1  -3   57.51    6.41
 -11   1  -3   53.49    6.26
 -11   1  -4  276.27   14.89
 -11  -1  -4  310.54   15.64
 -11   1  -5   48.90    6.16
 -11  -1  -5   36.20    5.30
  11  -1   7   27.02    4.84
  11   1   7   21.31    3.70
  11   1   8  154.66   10.60
  11   1   9    0.08    2.79
 -11   2   7  145.46    9.97
 -11   2   6   26.26    3.91
 -11   2   6   31.81    4.53
 -11   2   5  117.00    8.57
 -11   2   5  109.30    7.75
 -11  -2   5   90.23    8.08
 -11  -2   4   23.28    4.09
 -11   2   4   24.43    4.09
 -11   2   4   14.20    2.97
 -11   2   3   93.57    7.51
 -11   2   3   92.50    6.96
 -11  -2   3   84.54    7.64
 -11   2   2    8.27    2.31
 -11  -2   2    7.96    2.84
 -11  -2   1   78.79    7.28
 -11   2   0    8.82    3.18
 -11  -2   0    5.27    2.43
 -11  -2   0    2.19    1.83
 -11   2  -1   23.16    4.07
 -11  -2  -1   27.32    4.49
 -11   2  -2    0.32    1.82
 -11  -2  -2    2.00    1.92
 -11   2  -3   35.04    5.26
 -11  -2  -3   45.76    5.64
 -11   2  -4    2.06    2.24
 -11  -2  -4    0.80    2.13
 -11   2  -5    1.70    1.81
 -11  -2  -5    9.53    3.34
  11  -2   6    3.54    1.98
  11   2   7   10.37    3.03
 -11  -3   7   51.04    5.65
 -11   3   6   57.75    6.24
 -11  -3   6   54.86    5.79
 -11   3   5   94.10    7.95
 -11  -3   5  101.35    8.49
 -11  -3   4   30.73    4.86
 -11   3   4   29.16    4.32
 -11   3   3  106.30    8.14
 -11  -3   3  103.25    8.64
 -11   3   2  114.54    8.56
 -11  -3   2  135.19    9.82
 -11  -3   1   98.81    8.44
 -11   3   0   26.52    4.32
 -11  -3   0   19.23    3.63
 -11  -3   0   18.34    3.82
 -11   3  -1   71.62    6.98
 -11  -3  -1   89.13    7.75
 -11   3  -2  101.88    8.51
 -11  -3  -2  126.66    9.31
 -11   3  -3   77.23    7.47
 -11  -3  -3   71.11    7.18
 -11   3  -4    8.34    2.89
 -11  -3  -4    9.14    3.04
 -11   3  -5   52.97    6.47
 -11  -3  -5   41.37    5.57
 -11  -4   8    3.47    2.39
 -11  -4   7    3.16    2.28
 -11  -4   6    0.39    1.56
 -11  -4   5    2.57    2.20
 -11   4   5    4.26    1.82
 -11  -4   5   -2.03    1.51
 -11  -4   4    0.35    2.26
 -11   4   4    1.98    1.88
 -11   4   3    1.27    2.14
 -11  -4   3    2.03    2.13
 -11   4   2    8.44    2.61
 -11  -4   2    7.08    3.01
 -11   4   1    5.53    2.48
 -11  -4   1    2.65    1.99
 -11  -4   1   -1.11    1.91
 -11   4   0   22.19    3.94
 -11  -4   0   27.31    4.39
 -11  -4   0   33.61    5.16
 -11   4  -1    5.19    2.73
 -11  -4  -1    4.14    2.71
 -11  -4  -1    3.40    2.55
 -11   4  -2   40.33    5.32
 -11  -4  -2   41.16    5.40
 -11   4  -3   19.98    4.10
 -11  -4  -3   26.10    4.42
 -11   4  -4   76.90    7.63
 -11  -4  -4   64.62    6.92
 -11   4  -5    6.85    3.33
 -11  -4  -5    3.65    2.60
 -11  -5   7    4.97    2.43
 -11  -5   6    9.08    2.79
 -11  -5   5   18.53    4.16
 -11  -5   4  285.52   15.07
 -11   5   3   14.21    3.29
 -11   5   2   29.05    4.43
 -11  -5   2   25.17    4.80
 -11   5   1   26.25    4.26
 -11   5   1   20.48    3.91
 -11  -5   1   20.37    3.88
 -11  -5   1   21.70    4.25
 -11   5   0  357.76   16.85
 -11  -5   0  380.65   17.14
 -11  -5   0  353.29   17.67
 -11   5  -1   29.95    4.53
 -11  -5  -1   35.24    4.96
 -11   5  -2   26.35    4.47
 -11  -5  -2   28.84    4.93
 -11   5  -3   24.23    4.40
 -11  -5  -3   35.23    5.09
 -11   5  -4  207.54   12.77
 -11  -5  -4  213.74   12.89
 -11   6   2   59.62    6.44
 -11  -6   2   64.24    6.60
 -11   6   1   20.03    3.86
 -11  -6   1   22.52    3.90
 -11   6   0   53.54    6.09
 -11  -6   0   56.41    6.25
 -11   6  -1   15.14    3.35
 -11  -6  -1   13.63    3.29
 -11   6  -2   19.01    4.08
 -11  -6  -2   22.38    4.01
 -11   6  -3   42.37    5.63
 -11  -6  -3   49.93    6.07
 -11   6  -4   11.55    3.45
 -12   0   7    0.99    1.95
 -12   0   6   23.17    4.16
 -12   0   5    0.06    1.58
 -12   0   4  207.70   12.21
 -12   0   3    2.87    2.16
 -12   0   2    3.44    2.24
 -12   0   1   -0.02    1.50
 -12   0   0  117.41    9.58
 -12   0  -1    0.32    1.88
 -12   0  -2    9.89    3.08
 -12  -1   7   56.61    6.56
 -12   1   7   70.35    6.96
 -12   1   6   38.53    5.28
 -12  -1   6   26.77    4.63
 -12  -1   5   59.38    6.57
 -12   1   5   59.61    6.32
 -12   1   4   38.91    5.01
 -12  -1   4   41.66    5.47
 -12   1   3   85.19    7.36
 -12  -1   3   74.56    7.19
 -12   1   2   59.74    6.12
 -12  -1   2   59.84    6.51
 -12  -1   1   95.36    8.18
 -12   1   0   68.46    7.31
 -12  -1   0   65.23    7.14
 -12   1  -1   52.50    6.46
 -12  -1  -1   57.44    6.70
 -12   1  -2   47.73    6.08
 -12  -1  -2   48.13    6.27
 -12  -2   5    9.77    3.35
 -12  -2   4   88.45    8.29
 -12  -2   3   -0.35    1.66
 -12  -2   2    3.43    2.41
 -12   2   1    5.42    2.98
 -12  -2   1    0.62    2.25
 -12   2   0  153.17   10.97
 -12  -2   0  149.58   10.84
 -12  -2   0  150.77   10.66
 -12   2  -1    8.28    3.35
 -12  -2  -1   14.43    3.59
 -12  -3   3    5.21    2.47
 -12  -3   2   71.90    7.65
 -12   3   1    4.67    2.35
 -12  -3   1    2.43    1.74
 -12  -3   1    5.54    2.97
 -12   3   0   91.87    8.36
 -12  -3   0   74.90    7.81
 -12  -3   0   84.01    8.12
 -12   3  -1   15.01    3.62
 -12   4   1   15.97    4.01
 -12   4   0   49.67    6.25
 -13   0   5   62.69    7.11
 -13   0   4   -1.92    2.11
 -13   0   3   35.68    5.19
 -13   0   2   -0.74    1.86
 -13   1   3   69.22    7.03
   0   0   0    0.00    0.00
;
_shelx_hkl_checksum              24948
_shelx_res_file
;
TITL ppzP2on in P2/n
CELL  0.71073   9.8058   9.2603  12.4081   90.000   93.553   90.000
ZERR     5.00   0.0003   0.0003   0.0004    0.000    0.003    0.000
LATT   1
SYMM  1/2 - X,   Y, 1/2 - Z
SFAC  C    H    N    I    PB
UNIT  16   48   8    12   2
MERG   2
FMAP   2
PLAN   20
ACTA
HTAB
EQIV $1 -x+1, -y+1, -z+1
HTAB N1 I3_$1
EQIV $2 -x+1/2, y, -z+3/2
HTAB N1 I2_$2
EQIV $3 x-1, y, z
HTAB N1 I3_$3
HTAB N1 I4_$3
HTAB N2 I2
EQIV $4 -x+1, -y+2, -z+1
HTAB N2 I2_$4
HTAB N2 I4
HTAB C4 I3_$1
HTAB C4 I2_$4
HTAB C4 I4_$4
HTAB C2 I3_$3
HTAB C2 I4_$1
HTAB C2 I2
EQIV $5 -x+3/2, y, -z+3/2
HTAB C3 I3_$5
HTAB C3 I4
EQIV $6 x-1/2, -y+1, z-1/2
HTAB C3 I3_$6
HTAB C3 I4_$1
HTAB C1 I2_$2
HTAB C1 I4_$4
EQIV $7 x-1/2, -y+2, z-1/2
HTAB C1 I2_$7
HTAB C1 I4_$3
BOND
L.S.   4
WGHT    0.011500
FVAR       0.10756
N1    3    0.119030    0.698054    0.530480    11.00000    0.01061    0.02269 =
         0.01335   -0.00026    0.00450   -0.00229
AFIX  23
H5A   2    0.097681    0.635750    0.477481    11.00000   -1.20000
H5B   2    0.051166    0.698319    0.574901    11.00000   -1.20000
AFIX   0
N2    3    0.380185    0.800645    0.471277    11.00000    0.01202    0.02063 =
         0.01740   -0.00015    0.00262   -0.00555
AFIX  23
H6A   2    0.401037    0.862703    0.524541    11.00000   -1.20000
H6B   2    0.448485    0.800670    0.427266    11.00000   -1.20000
AFIX   0
C4    1    0.252999    0.848338    0.410808    11.00000    0.01542    0.02008 =
         0.01494    0.00689    0.00130   -0.00182
AFIX  23
H4A   2    0.233485    0.785008    0.349515    11.00000   -1.20000
H4B   2    0.264968    0.945484    0.383721    11.00000   -1.20000
AFIX   0
C2    1    0.248368    0.650091    0.591122    11.00000    0.01658    0.02132 =
         0.01160    0.00132    0.00255   -0.00069
AFIX  23
H2A   2    0.236816    0.553074    0.618590    11.00000   -1.20000
H2B   2    0.268618    0.713787    0.652084    11.00000   -1.20000
AFIX   0
C3    1    0.365140    0.652610    0.517436    11.00000    0.01682    0.01983 =
         0.01720    0.00744    0.00848    0.00477
AFIX  23
H3A   2    0.449131    0.625137    0.557634    11.00000   -1.20000
H3B   2    0.347968    0.583562    0.459390    11.00000   -1.20000
AFIX   0
C1    1    0.133853    0.845590    0.483937    11.00000    0.02127    0.01887 =
         0.01903    0.01165    0.00794    0.00785
AFIX  23
H1A   2    0.149663    0.915184    0.541791    11.00000   -1.20000
H1B   2    0.050283    0.872194    0.442801    11.00000   -1.20000
AFIX   0
MOLE    1
PB1   5    0.750000    0.716973    0.750000    10.50000    0.01360    0.01519 =
         0.01279    0.00000    0.00200    0.00000
I2    4    0.488549    0.938796    0.732333    11.00000    0.01478    0.01655 =
         0.01430   -0.00139    0.00175   -0.00069
I3    4    0.967567    0.459890    0.729533    11.00000    0.01445    0.01582 =
         0.01446   -0.00147    0.00217   -0.00040
I4    4    0.747742    0.748992    0.493147    11.00000    0.01396    0.02440 =
         0.01408   -0.00160    0.00178   -0.00220
HKLF 4
REM  ppzP2on in P2/n
REM R1 =  0.0271 for    2339 Fo > 4sig(Fo)  and  0.0334 for all    2624 data
REM     87 parameters refined using      0 restraints
END
WGHT      0.0114      0.0000
REM Instructions for potential hydrogen bonds
HTAB N1 I3_$1
HTAB N1 I2_$2
HTAB N1 I3_$3
HTAB N1 I4_$3
HTAB N2 I2
HTAB N2 I2_$4
HTAB N2 I4
HTAB C4 I3_$1
HTAB C4 I2_$4
HTAB C4 I4_$4
HTAB C2 I3_$3
HTAB C2 I4_$1
HTAB C2 I2
HTAB C3 I3_$5
HTAB C3 I4
HTAB C3 I3_$6
HTAB C3 I4_$1
HTAB C1 I2_$2
HTAB C1 I4_$4
HTAB C1 I2_$7
HTAB C1 I4_$3
REM Highest difference peak  1.304,  deepest hole -1.137,  1-sigma level  0.214
Q1    1   0.8140  0.6455  0.7559  11.00000  0.05    1.30
Q2    1   0.8147  0.7775  0.7489  11.00000  0.05    1.19
Q3    1   0.4395  1.0050  0.7366  11.00000  0.05    1.08
Q4    1   1.0432  0.4096  0.7383  11.00000  0.05    1.08
Q5    1   0.6685  0.6834  0.4879  11.00000  0.05    1.05
Q6    1   0.7991  0.6841  0.5180  11.00000  0.05    0.98
Q7    1   0.6040  0.8585  0.7398  11.00000  0.05    0.97
Q8    1   0.5615  1.0150  0.7371  11.00000  0.05    0.94
Q9    1   1.0360  0.5233  0.7364  11.00000  0.05    0.85
Q10   1   0.6795  0.8051  0.4898  11.00000  0.05    0.84
Q11   1   0.2786  0.6738  0.5393  11.00000  0.05    0.81
Q12   1   0.5213  0.8218  0.2956  11.00000  0.05    0.81
Q13   1   0.8164  0.8190  0.4798  11.00000  0.05    0.79
Q14   1   0.3927  0.9930  0.5615  11.00000  0.05    0.75
Q15   1   0.8316  0.8770  0.5098  11.00000  0.05    0.72
Q16   1   0.2500  0.4014  0.7500  10.50000  0.05    0.68
Q17   1   0.9163  0.5341  0.7412  11.00000  0.05    0.68
Q18   1   0.3594  1.0585  0.7267  11.00000  0.05    0.68
Q19   1   0.5005  1.1033  0.7728  11.00000  0.05    0.66
Q20   1   0.8749  0.6330  0.4963  11.00000  0.05    0.66
;
_shelx_res_checksum              3275
_shelxl_version_number           201.4
loop_
_space_group_symop_operation_xyz
'x, y, z'
'-x+1/2, y, -z+1/2'
'-x, -y, -z'
'x-1/2, -y, z-1/2'
loop_
_atom_site_type_symbol
_atom_site_label
_atom_site_fract_x
_atom_site_fract_y
_atom_site_fract_z
_atom_site_U_iso_or_equiv
_atom_site_adp_type
_atom_site_calc_flag
_atom_site_occupancy
N N1 0.1190(4) 0.6981(5) 0.5305(3) 0.0154(10) Uani d 1
H H5A 0.0977 0.6358 0.4775 0.018 Uiso calc 1
H H5B 0.0512 0.6983 0.5749 0.018 Uiso calc 1
N N2 0.3802(4) 0.8006(5) 0.4713(4) 0.0166(10) Uani d 1
H H6A 0.4010 0.8627 0.5245 0.020 Uiso calc 1
H H6B 0.4485 0.8007 0.4273 0.020 Uiso calc 1
C C4 0.2530(5) 0.8483(6) 0.4108(4) 0.0168(12) Uani d 1
H H4A 0.2335 0.7850 0.3495 0.020 Uiso calc 1
H H4B 0.2650 0.9455 0.3837 0.020 Uiso calc 1
C C2 0.2484(5) 0.6501(6) 0.5911(4) 0.0164(12) Uani d 1
H H2A 0.2368 0.5531 0.6186 0.020 Uiso calc 1
H H2B 0.2686 0.7138 0.6521 0.020 Uiso calc 1
C C3 0.3651(5) 0.6526(6) 0.5174(4) 0.0176(12) Uani d 1
H H3A 0.4491 0.6251 0.5576 0.021 Uiso calc 1
H H3B 0.3480 0.5836 0.4594 0.021 Uiso calc 1
C C1 0.1339(5) 0.8456(6) 0.4839(5) 0.0194(13) Uani d 1
H H1A 0.1497 0.9152 0.5418 0.023 Uiso calc 1
H H1B 0.0503 0.8722 0.4428 0.023 Uiso calc 1
Pb Pb1 0.7500 0.71697(3) 0.7500 0.01381(8) Uani d 1
I I2 0.48855(3) 0.93880(4) 0.73233(3) 0.01518(9) Uani d 1
I I3 0.96757(3) 0.45989(4) 0.72953(3) 0.01486(9) Uani d 1
I I4 0.74774(3) 0.74899(4) 0.49315(3) 0.01744(9) Uani d 1
loop_
_atom_site_aniso_label
_atom_site_aniso_U_11
_atom_site_aniso_U_22
_atom_site_aniso_U_33
_atom_site_aniso_U_12
_atom_site_aniso_U_13
_atom_site_aniso_U_23
N1 0.011(2) 0.023(2) 0.013(2) -0.0023(18) 0.0045(17) 0.000(2)
N2 0.012(2) 0.021(2) 0.017(3) -0.0056(18) 0.0026(18) 0.000(2)
C4 0.015(3) 0.020(3) 0.015(3) -0.002(2) 0.001(2) 0.007(3)
C2 0.017(3) 0.021(3) 0.012(3) -0.001(2) 0.003(2) 0.001(2)
C3 0.017(3) 0.020(3) 0.017(3) 0.005(2) 0.008(2) 0.007(3)
C1 0.021(3) 0.019(3) 0.019(3) 0.008(2) 0.008(2) 0.012(3)
Pb1 0.01360(14) 0.01519(15) 0.01279(15) 0.000 0.00200(11) 0.000
I2 0.01478(17) 0.01655(18) 0.01430(19) -0.00069(13) 0.00175(13) -0.00139(15)
I3 0.01445(17) 0.01582(18) 0.01446(19) -0.00040(13) 0.00217(13) -0.00147(15)
I4 0.01396(18) 0.0244(2) 0.01408(19) -0.00220(13) 0.00178(13) -0.00160(16)
loop_
_atom_type_symbol
_atom_type_description
_atom_type_scat_dispersion_real
_atom_type_scat_dispersion_imag
_atom_type_scat_source
C C 0.0033 0.0016 'International Tables Vol C Tables 4.2.6.8 and 6.1.1.4'
H H 0.0000 0.0000 'International Tables Vol C Tables 4.2.6.8 and 6.1.1.4'
N N 0.0061 0.0033 'International Tables Vol C Tables 4.2.6.8 and 6.1.1.4'
I I -0.4742 1.8119 'International Tables Vol C Tables 4.2.6.8 and 6.1.1.4'
Pb Pb -3.3944 10.1111 'International Tables Vol C Tables 4.2.6.8 and 6.1.1.4'
loop_
_geom_angle_atom_site_label_1
_geom_angle_atom_site_label_2
_geom_angle_atom_site_label_3
_geom_angle_site_symmetry_1
_geom_angle_site_symmetry_3
_geom_angle
C1 N1 C2 . . 111.4(4)
C4 N2 C3 . . 111.5(4)
N2 C4 C1 . . 110.2(4)
N1 C2 C3 . . 109.9(4)
N2 C3 C2 . . 110.0(4)
N1 C1 C4 . . 110.0(4)
I4 Pb1 I4 2_656 . 169.365(16)
I4 Pb1 I3 2_656 2_656 87.343(9)
I4 Pb1 I3 . 2_656 100.574(10)
I4 Pb1 I3 2_656 . 100.575(10)
I4 Pb1 I3 . . 87.343(9)
I3 Pb1 I3 2_656 . 84.542(14)
I4 Pb1 I2 2_656 . 88.034(9)
I4 Pb1 I2 . . 85.314(9)
I3 Pb1 I2 2_656 . 87.096(8)
I3 Pb1 I2 . . 167.680(10)
I4 Pb1 I2 2_656 2_656 85.313(9)
I4 Pb1 I2 . 2_656 88.034(10)
I3 Pb1 I2 2_656 2_656 167.680(10)
I3 Pb1 I2 . 2_656 87.096(8)
I2 Pb1 I2 . 2_656 102.502(14)
loop_
_geom_bond_atom_site_label_1
_geom_bond_atom_site_label_2
_geom_bond_site_symmetry_2
_geom_bond_distance
N1 C1 . 1.494(6)
N1 C2 . 1.501(6)
N2 C4 . 1.482(6)
N2 C3 . 1.496(6)
C4 C1 . 1.523(7)
C2 C3 . 1.509(7)
Pb1 I4 2_656 3.1995(4)
Pb1 I4 . 3.1995(4)
Pb1 I3 2_656 3.2172(4)
Pb1 I3 . 3.2172(4)
Pb1 I2 . 3.2819(4)
Pb1 I2 2_656 3.2819(4)
loop_
_geom_hbond_atom_site_label_D
_geom_hbond_atom_site_label_H
_geom_hbond_atom_site_label_A
_geom_hbond_site_symmetry_A
_geom_hbond_distance_DH
_geom_hbond_distance_HA
_geom_hbond_distance_DA
_geom_hbond_angle_DHA
N1 H5A I3 3_666 0.89 2.75 3.596(4) 158.1
N1 H5B I2 2_556 0.89 3.31 3.890(4) 125.1
N1 H5B I3 1_455 0.89 3.07 3.691(4) 128.6
N1 H5B I4 1_455 0.89 3.12 3.672(4) 122.3
N2 H6A I2 . 0.89 2.76 3.582(4) 154.6
N2 H6B I2 3_676 0.89 3.21 3.777(4) 124.1
N2 H6B I4 . 0.89 3.03 3.629(4) 125.9
C4 H4A I3 3_666 0.97 3.12 3.923(5) 140.8
C4 H4B I2 3_676 0.97 3.08 3.744(5) 126.8
C4 H4B I4 3_676 0.97 3.22 3.915(5) 129.9
C2 H2A I3 1_455 0.97 3.17 3.771(5) 121.5
C2 H2A I4 3_666 0.97 3.13 3.842(5) 131.5
C2 H2B I2 . 0.97 3.12 3.906(5) 139.4
C3 H3A I3 2_656 0.97 3.12 3.885(5) 137.2
C3 H3A I4 . 0.97 3.29 3.886(5) 121.6
C3 H3B I3 4_565 0.97 3.18 3.912(6) 133.9
C3 H3B I4 3_666 0.97 3.28 3.880(5) 121.6
C1 H1A I2 2_556 0.97 3.20 3.886(6) 129.6
C1 H1A I4 3_676 0.97 3.31 3.935(5) 124.3
C1 H1B I2 4_575 0.97 3.17 3.900(5) 133.3
C1 H1B I4 1_455 0.97 3.27 3.899(5) 123.8

_cod_database_fobs_code 2107273
